
Nanome Inc. SDF Saver. Edited/Viewed in Nanome version 1.24.6 Edited 2025-12-02

  0  0  0     0  0            999 V3000
M  V30 BEGIN CTAB
M  V30 COUNTS 339 341 0 0 0
M  V30 BEGIN ATOM
M  V30 1 N -13.6234 -12.845 -12.8515 0 CHG=1
M  V30 2 C -12.1586 -12.8424 -12.8579 0 
M  V30 3 C -11.6306 -11.4233 -12.8385 0 
M  V30 4 O -10.7582 -11.0787 -12.0748 0 
M  V30 5 C -11.63 -13.5511 -14.0725 0 
M  V30 6 H -13.9644 -12.364 -12.0147 0 
M  V30 7 H -13.9643 -13.8091 -12.8494 0 
M  V30 8 H -13.9663 -12.3661 -13.6829 0 
M  V30 9 N -12.2157 -10.5665 -13.7198 0 
M  V30 10 C -11.8023 -9.184 -13.8242 0 
M  V30 11 C -11.9335 -8.4922 -12.4775 0 
M  V30 12 O -11.0464 -7.801 -12.0208 0 
M  V30 13 C -12.6374 -8.4415 -14.8346 0 
M  V30 14 H -12.9242 -10.9026 -14.3307 0 
M  V30 15 N -13.11 -8.7022 -11.8166 0 
M  V30 16 C -13.3767 -8.1021 -10.5348 0 
M  V30 17 C -12.3 -8.4871 -9.5347 0 
M  V30 18 O -11.7701 -7.6659 -8.8121 0 
M  V30 19 C -14.7166 -8.5411 -9.9999 0 
M  V30 20 H -13.8009 -9.2706 -12.2485 0 
M  V30 21 N -11.9754 -9.8126 -9.4937 0 
M  V30 22 C -10.9744 -10.3208 -8.5937 0 
M  V30 23 C -9.6538 -9.6016 -8.8012 0 
M  V30 24 O -9.0011 -9.1743 -7.8649 0 
M  V30 25 C -10.7611 -11.7998 -8.7987 0 
M  V30 26 H -12.448 -10.4326 -10.1074 0 
M  V30 27 N -9.2399 -9.473 -10.0892 0 
M  V30 28 C -8.0114 -8.8184 -10.44 0 
M  V30 29 C -7.9824 -7.4066 -9.8819 0 
M  V30 30 O -7.0113 -6.9697 -9.2866 0 
M  V30 31 C -7.829 -8.7542 -11.9351 0 
M  V30 32 H -9.8224 -9.8516 -10.8149 0 
M  V30 33 N -9.0969 -6.6573 -10.0919 0 
M  V30 34 C -9.2168 -5.3073 -9.6258 0 
M  V30 35 C -8.986 -5.2393 -8.128 0 
M  V30 36 O -8.2463 -4.406 -7.6264 0 
M  V30 37 C -10.5776 -4.7358 -9.9331 0 
M  V30 38 H -9.8613 -7.0778 -10.5956 0 
M  V30 39 N -9.6536 -6.1526 -7.3755 0 
M  V30 40 C -9.5372 -6.2111 -5.9491 0 
M  V30 41 C -8.0857 -6.3707 -5.5425 0 
M  V30 42 O -7.5839 -5.6847 -4.6627 0 
M  V30 43 C -10.3301 -7.3586 -5.3754 0 
M  V30 44 N -7.3778 -7.3248 -6.1998 0 
M  V30 45 C -5.998 -7.5931 -5.9234 0 
M  V30 46 C -5.1728 -6.3295 -6.0784 0 
M  V30 47 O -4.3525 -5.9872 -5.236 0 
M  V30 48 C -5.4438 -8.6514 -6.8433 0 
M  V30 49 H -7.8552 -7.8609 -6.9096 0 
M  V30 50 N -5.3832 -5.6067 -7.2078 0 
M  V30 51 C -4.6789 -4.3934 -7.496 0 
M  V30 52 C -4.8567 -3.4017 -6.3629 0 
M  V30 53 O -3.9109 -2.7904 -5.8851 0 
M  V30 54 C -5.1599 -3.764 -8.7776 0 
M  V30 55 H -6.07 -5.9491 -7.8639 0 
M  V30 56 N -6.1295 -3.2183 -5.9178 0 
M  V30 57 C -6.4588 -2.2889 -4.8656 0 
M  V30 58 C -5.6566 -2.6375 -3.6134 0 
M  V30 59 O -5.0698 -1.78 -2.9703 0 
M  V30 60 C -8.1793 -1.4551 -1.4142 0 
M  V30 61 C -8.1448 0.6204 1.7945 0 
M  V30 62 C -9.3612 1.295 1.7239 0 
M  V30 63 C -7.8369 -0.332 0.8161 0 
M  V30 64 C -10.2385 1.039 0.668 0 
M  V30 65 C -8.6825 -0.5687 -0.2861 0 
M  V30 66 C -9.8927 0.1314 -0.3402 0 
M  V30 67 C -7.1855 0.9672 2.8076 0 
M  V30 68 C -6.3802 1.3455 3.618 0 
M  V30 69 C -8.0072 -2.2261 -4.59 0 
M  V30 70 H -6.8628 -3.7446 -6.3619 0 
M  V30 71 C -9.2411 -2.1051 -2.3121 0 
M  V30 72 C -8.6559 -3.0013 -3.4232 0 
M  V30 73 N -5.6359 -3.9437 -3.242 0 
M  V30 74 C -4.9327 -4.413 -2.0873 0 
M  V30 75 C -3.4686 -4.0175 -2.1662 0 
M  V30 76 O -2.8839 -3.5105 -1.2183 0 
M  V30 77 C -5.0254 -5.9112 -1.951 0 
M  V30 78 H -6.1472 -4.6047 -3.8117 0 
M  V30 79 N -2.8404 -4.2699 -3.3427 0 
M  V30 80 C -1.4636 -3.9551 -3.5685 0 
M  V30 81 C -1.206 -2.4818 -3.3038 0 
M  V30 82 O -0.2599 -2.102 -2.624 0 
M  V30 83 C -1.0431 -4.2742 -4.9803 0 
M  V30 84 H -3.3804 -4.6982 -4.0824 0 
M  V30 85 N -2.0764 -1.6075 -3.8707 0 
M  V30 86 C -1.9627 -0.1883 -3.7133 0 
M  V30 87 C -1.9527 0.1802 -2.2405 0 
M  V30 88 O -1.1314 0.958 -1.7758 0 
M  V30 89 C -3.0968 0.5377 -4.3877 0 
M  V30 90 N -2.9129 -0.3921 -1.4701 0 
M  V30 91 C -3.0351 -0.1368 -0.068 0 
M  V30 92 C -1.7333 -0.4622 0.6411 0 
M  V30 93 O -1.2304 0.305 1.4515 0 
M  V30 94 C -4.1402 -0.952 0.5483 0 
M  V30 95 H -3.5647 -1.0205 -1.919 0 
M  V30 96 N -1.1642 -1.6572 0.3394 0 
M  V30 97 C 0.0612 -2.1032 0.9292 0 
M  V30 98 C 1.1633 -1.0865 0.6953 0 
M  V30 99 O 1.9004 -0.7141 1.5979 0 
M  V30 100 C 0.4979 -3.4299 0.3625 0 
M  V30 101 H -1.6372 -2.2468 -0.3322 0 
M  V30 102 N 1.2922 -0.6195 -0.5732 0 
M  V30 103 C 2.2849 0.3413 -0.9473 0 
M  V30 104 C 2.1634 1.588 -0.0915 0 
M  V30 105 O 3.138 2.1083 0.435 0 
M  V30 106 C 2.1588 0.7332 -2.3973 0 
M  V30 107 N 0.9151 2.1035 0.0482 0 
M  V30 108 C 0.6409 3.2773 0.8222 0 
M  V30 109 C 1.145 3.1019 2.2433 0 
M  V30 110 O 1.8024 3.9656 2.8075 0 
M  V30 111 C -0.8337 3.5839 0.8647 0 
M  V30 112 H 0.1556 1.627 -0.4189 0 
M  V30 113 N 0.8137 1.9381 2.8603 0 
M  V30 114 C 1.2132 1.6293 4.1995 0 
M  V30 115 C 2.7226 1.7174 4.3364 0 
M  V30 116 O 3.2545 2.3136 5.2615 0 
M  V30 117 C 0.7686 0.2496 4.6086 0 
M  V30 118 H 0.264 1.2689 2.3368 0 
M  V30 119 N 3.4513 1.0897 3.3789 0 
M  V30 120 C 4.8822 1.0822 3.3742 0 
M  V30 121 C 5.4184 2.5019 3.3911 0 
M  V30 122 O 6.3082 2.8473 4.1548 0 
M  V30 123 C 5.4288 0.3696 2.1638 0 
M  V30 124 H 2.9483 0.6116 2.6433 0 
M  V30 125 N 4.8613 3.3653 2.5029 0 
M  V30 126 C 5.2638 4.734 2.3983 0 
M  V30 127 C 5.1313 5.4269 3.7409 0 
M  V30 128 O 6.025 6.127 4.1956 0 
M  V30 129 C 4.437 5.4807 1.3823 0 
M  V30 130 H 4.1328 3.0122 1.8977 0 
M  V30 131 N 3.9646 5.2422 4.4008 0 
M  V30 132 C 3.6739 5.8449 5.6783 0 
M  V30 133 C 4.7567 5.4456 6.6816 0 
M  V30 134 O 5.2911 6.2727 7.4064 0 
M  V30 135 C -2.454 4.23 8.6016 0 
M  V30 136 C -3.8251 4.0044 8.734 0 
M  V30 137 C -1.7808 3.8782 7.4236 0 
M  V30 138 C -4.5413 3.407 7.6969 0 
M  V30 139 C -2.5151 3.263 6.3864 0 
M  V30 140 C -3.8914 3.0278 6.52 0 
M  V30 141 C -4.6573 2.4061 5.4739 0 
M  V30 142 C -5.377 1.913 4.6449 0 
M  V30 143 C -0.2826 4.0864 7.2942 0 
M  V30 144 C 2.27 5.313 6.1113 0 
M  V30 145 H 3.2636 4.6543 3.9673 0 
M  V30 146 C 0.2075 5.5087 7.6192 0 
M  V30 147 C 1.7333 5.7124 7.4895 0 
M  V30 148 N 5.0846 4.1286 6.7339 0 
M  V30 149 C 6.0757 3.6146 7.6308 0 
M  V30 150 C 7.3978 4.3293 7.4243 0 
M  V30 151 O 8.0523 4.7565 8.3642 0 
M  V30 152 C 6.2881 2.1348 7.4341 0 
M  V30 153 H 4.6064 3.4973 6.1068 0 
M  V30 154 N 7.8204 4.4549 6.1403 0 
M  V30 155 C 9.0483 5.102 5.7898 0 
M  V30 156 C 9.0794 6.5157 6.3432 0 
M  V30 157 O 10.0521 6.954 6.9385 0 
M  V30 158 C 9.2354 5.1616 4.2943 0 
M  V30 159 N 7.9698 7.27 6.1284 0 
M  V30 160 C 7.8523 8.6216 6.5897 0 
M  V30 161 C 8.0804 8.6916 8.0892 0 
M  V30 162 O 8.8196 9.5256 8.5886 0 
M  V30 163 C 6.4958 9.1981 6.2769 0 
M  V30 164 H 7.2035 6.8447 5.6256 0 
M  V30 165 N 7.4068 7.7845 8.8424 0 
M  V30 166 C 7.5195 7.7287 10.2687 0 
M  V30 167 C 8.9725 7.5679 10.6806 0 
M  V30 168 O 9.4702 8.2532 11.5575 0 
M  V30 169 C 6.7209 6.5842 10.8433 0 
M  V30 170 H 6.8105 7.1253 8.3655 0 
M  V30 171 N 9.6751 6.6061 10.0278 0 
M  V30 172 C 11.0554 6.3377 10.3091 0 
M  V30 173 C 11.8875 7.6002 10.1548 0 
M  V30 174 O 12.698 7.9331 10.987 0 
M  V30 175 C 11.6072 5.2737 9.3929 0 
M  V30 176 H 9.2 6.0727 9.3176 0 
M  V30 177 N 11.6755 8.3155 9.0145 0 
M  V30 178 C 12.3878 9.527 8.7327 0 
M  V30 179 C 12.2124 10.5258 9.8635 0 
M  V30 180 O 13.1531 11.1382 10.3279 0 
M  V30 181 C 11.9117 10.1543 7.4444 0 
M  V30 182 H 10.9916 7.9748 8.3632 0 
M  V30 183 N 10.9329 10.719 10.2938 0 
M  V30 184 C 10.6156 11.6281 11.3537 0 
M  V30 185 C 11.4143 11.2946 12.6027 0 
M  V30 186 O 11.9872 12.1626 13.2424 0 
M  V30 187 C 9.143 11.5909 11.6849 0 
M  V30 188 H 10.2037 10.1854 9.8567 0 
M  V30 189 N 11.3988 9.9923 12.9816 0 
M  V30 190 C 12.1237 9.5295 14.1335 0 
M  V30 191 C 13.5855 9.9092 14.0467 0 
M  V30 192 O 14.1093 10.4303 15.0699 0 
M  V30 193 O 14.1752 9.6695 12.9631 0 
M  V30 194 C 12.0247 8.0294 14.2781 0 
M  V30 195 H 10.9123 9.3334 12.4076 0 
M  V30 196 C -6.0804 -0.8909 -5.3972 0 
M  V30 197 H 0.6525 -0.9727 -1.2717 0 
M  V30 198 H 7.2334 4.0729 5.4122 0 
M  V30 199 H -11.8466 -13.3617 -11.9613 0 
M  V30 200 H -11.9452 -13.0395 -14.9718 0 
M  V30 201 H -11.9861 -14.57 -14.1048 0 
M  V30 202 H -10.5448 -13.5623 -14.0445 0 
M  V30 203 H -10.7644 -9.1744 -14.1313 0 
M  V30 204 H -13.6772 -8.4456 -14.5332 0 
M  V30 205 H -12.5545 -8.9102 -15.8051 0 
M  V30 206 H -12.3028 -7.4148 -14.9122 0 
M  V30 207 H -13.3735 -7.0279 -10.6679 0 
M  V30 208 H -14.7281 -9.614799 -9.8615 0 
M  V30 209 H -15.502 -8.2708 -10.6916 0 
M  V30 210 H -14.9114 -8.0664 -9.0465 0 
M  V30 211 H -11.3257 -10.1433 -7.5837 0 
M  V30 212 H -10.4077 -11.9877 -9.803699 0 
M  V30 213 H -11.6877 -12.336 -8.6496 0 
M  V30 214 H -10.0247 -12.1717 -8.0978 0 
M  V30 215 H -7.2025 -9.3932 -10.0013 0 
M  V30 216 H -8.6294 -8.1795 -12.3815 0 
M  V30 217 H -7.8384 -9.7495 -12.3562 0 
M  V30 218 H -6.8862 -8.2804 -12.1774 0 
M  V30 219 H -8.4551 -4.7235 -10.1316 0 
M  V30 220 H -11.3434 -5.3101 -9.429 0 
M  V30 221 H -10.7642 -4.7658 -10.9973 0 
M  V30 222 H -10.6374 -3.7087 -9.5965 0 
M  V30 223 H -9.9195 -5.275 -5.555 0 
M  V30 224 H -9.9533 -8.2974 -5.759 0 
M  V30 225 H -11.3724 -7.2653 -5.6464 0 
M  V30 226 H -10.2488 -7.3685 -4.2959 0 
M  V30 227 H -5.9355 -7.9393 -4.8967 0 
M  V30 228 H -5.4974 -8.3144 -7.8698 0 
M  V30 229 H -6.0124 -9.5655 -6.7468 0 
M  V30 230 H -4.4089 -8.8555 -6.5996 0 
M  V30 231 H -3.6273 -4.6421 -7.5916 0 
M  V30 232 H -6.2068 -3.5065 -8.6929 0 
M  V30 233 H -5.0355 -4.4528 -9.6011 0 
M  V30 234 H -4.5976 -2.8631 -8.9875 0 
M  V30 235 H -7.567 -2.2557 -0.9796 0 
M  V30 236 H -6.9082 -0.8829 0.8998 0 
M  V30 237 H -11.1824 1.576 0.6109 0 
M  V30 238 H -10.5808 0.0039 -1.1708 0 
M  V30 239 H -8.5221 -2.5371 -5.5103 0 
M  V30 240 H -8.3002 -1.174 -4.4699 0 
M  V30 241 H -9.8769 -1.3434 -2.7777 0 
M  V30 242 H -9.9012 -2.7196 -1.6862 0 
M  V30 243 H -9.5048 -3.5571 -3.8434 0 
M  V30 244 H -8.0139 -3.7579 -2.9777 0 
M  V30 245 H -5.3848 -3.9434 -1.2198 0 
M  V30 246 H -4.5734 -6.3889 -2.8096 0 
M  V30 247 H -6.0598 -6.217 -1.8869 0 
M  V30 248 H -4.5076 -6.2391 -1.0589 0 
M  V30 249 H -1.6147 -3.6796 -5.6802 0 
M  V30 250 H -1.2106 -5.3206 -5.1929 0 
M  V30 251 H 0.0079 -4.0538 -5.1166 0 
M  V30 252 H -1.0223 0.1149 -4.1632 0 
M  V30 253 H -4.0381 0.2465 -3.9417 0 
M  V30 254 H -3.1196 0.2957 -5.4412 0 
M  V30 255 H -2.9785 1.6069 -4.2766 0 
M  V30 256 H -3.2541 0.919 0.051 0 
M  V30 257 H -3.9291 -2.0069 0.4374 0 
M  V30 258 H -5.0786 -0.7329 0.0618 0 
M  V30 259 H -4.2305 -0.726 1.603 0 
M  V30 260 H -0.112 -2.2023 1.9961 0 
M  V30 261 H 0.677 -3.3375 -0.7005 0 
M  V30 262 H -0.2685 -4.1751 0.5226 0 
M  V30 263 H 1.4119 -3.7595 0.8399 0 
M  V30 264 H 3.2553 -0.1144 -0.7793 0 
M  V30 265 H 1.1958 1.1933 -2.5741 0 
M  V30 266 H 2.249 -0.1391 -3.0292 0 
M  V30 267 H 2.9341 1.4402 -2.6638 0 
M  V30 268 H 1.1651 4.1046 0.3545 0 
M  V30 269 H -1.3673 2.7685 1.3337 0 
M  V30 270 H -1.2154 3.7197 -0.1372 0 
M  V30 271 H -1.0127 4.4876 1.4332 0 
M  V30 272 H 0.7521 2.3634 4.8506 0 
M  V30 273 H 1.2271 -0.4915 3.9678 0 
M  V30 274 H -0.3057 0.1642 4.5268 0 
M  V30 275 H 1.0589 0.0497 5.6321 0 
M  V30 276 H 5.2062 0.568 4.2735 0 
M  V30 277 H 5.1147 0.8779 1.262 0 
M  V30 278 H 5.0661 -0.6481 2.134 0 
M  V30 279 H 6.5108 0.3549 2.1938 0 
M  V30 280 H 6.3052 4.7435 2.0923 0 
M  V30 281 H 3.3972 5.4814 1.6802 0 
M  V30 282 H 4.5205 5.0088 0.4135 0 
M  V30 283 H 4.7761 6.5059 1.3027 0 
M  V30 284 H -1.9157 4.6777 9.4341 0 
M  V30 285 H -4.3342 4.2897 9.6511 0 
M  V30 286 H -5.6083 3.2352 7.8166 0 
M  V30 287 H -2.0098 2.9632 5.4702 0 
M  V30 288 H 0.0019 3.8501 6.2655 0 
M  V30 289 H 0.2234 3.3593 7.941 0 
M  V30 290 H 2.273 4.2221 6.084 0 
M  V30 291 H 1.5411 5.6226 5.3482 0 
M  V30 292 H -0.0749 5.7819 8.6426 0 
M  V30 293 H -0.3026 6.2223 6.9591 0 
M  V30 294 H 2.2447 5.1254 8.2618 0 
M  V30 295 H 1.9434 6.7646 7.7024 0 
M  V30 296 H 5.7232 3.7973 8.6412 0 
M  V30 297 H 6.644 1.9423 6.431 0 
M  V30 298 H 5.3598 1.6014 7.5819 0 
M  V30 299 H 7.0214 1.7637 8.1389 0 
M  V30 300 H 9.8548 4.5267 6.2332 0 
M  V30 301 H 8.4383 5.7377 3.844 0 
M  V30 302 H 9.2235 4.1652 3.8763 0 
M  V30 303 H 10.1802 5.6312 4.0525 0 
M  V30 304 H 8.6164 9.2039 6.0843 0 
M  V30 305 H 5.7272 8.6271 6.7802 0 
M  V30 306 H 6.3121 9.1652 5.2118 0 
M  V30 307 H 6.4369 10.2256 6.6105 0 
M  V30 308 H 7.1373 8.6673 10.6573 0 
M  V30 309 H 7.0962 5.6428 10.4643 0 
M  V30 310 H 5.6795 6.6786 10.5689 0 
M  V30 311 H 6.7984 6.5775 11.9233 0 
M  V30 312 H 11.1141 5.9942 11.3365 0 
M  V30 313 H 11.5564 5.6074 8.3652 0 
M  V30 314 H 11.0358 4.3616 9.4914 0 
M  V30 315 H 12.6411 5.0674 9.639 0 
M  V30 316 H 13.4379 9.2718 8.6405 0 
M  V30 317 H 10.8654 10.4164 7.5253 0 
M  V30 318 H 12.0347 9.4626 6.6231 0 
M  V30 319 H 12.4781 11.0525 7.2335 0 
M  V30 320 H 10.8806 12.6247 11.0132 0 
M  V30 321 H 8.8671 10.6031 12.0289 0 
M  V30 322 H 8.5558 11.8315 10.81 0 
M  V30 323 H 8.9162 12.3052 12.4661 0 
M  V30 324 H 11.6668 10.0001 15.0014 0 
M  V30 325 H 12.4753 7.5457 13.422 0 
M  V30 326 H 10.9873 7.7254 14.3416 0 
M  V30 327 H 12.5385 7.7018 15.1721 0 
M  V30 328 H -10.2506 -6.8107 -7.8531 0 
M  V30 329 H -7.5164 -0.8373 -2.0314 0 
M  V30 330 H -9.625 2.037 2.4736 0 
M  V30 331 H -0.8821 -4.5523 -2.8738 0 
M  V30 332 H -2.8336 -1.9888 -4.4234 0 
M  V30 333 H -5.0285 -0.8418 -5.6411 0 
M  V30 334 H -6.2994 -0.1344 -4.6569 0 
M  V30 335 H -6.649 -0.6717 -6.2962 0 
M  V30 336 C 3.5708 7.378 5.5287 0 
M  V30 337 H 4.4896 7.8055 5.1079 0 
M  V30 338 H 3.3581 7.8713 6.4947 0 
M  V30 339 H 2.7644 7.6388 4.82 0 
M  V30 END ATOM
M  V30 BEGIN BOND
M  V30 1 1 1 2
M  V30 2 1 2 3
M  V30 3 2 3 4
M  V30 4 1 2 5
M  V30 5 1 1 6
M  V30 6 1 1 7
M  V30 7 1 1 8
M  V30 8 1 3 9
M  V30 9 1 9 10
M  V30 10 1 10 11
M  V30 11 2 11 12
M  V30 12 1 10 13
M  V30 13 1 9 14
M  V30 14 1 11 15
M  V30 15 1 15 16
M  V30 16 1 16 17
M  V30 17 2 17 18
M  V30 18 1 16 19
M  V30 19 1 15 20
M  V30 20 1 17 21
M  V30 21 1 21 22
M  V30 22 1 22 23
M  V30 23 2 23 24
M  V30 24 1 22 25
M  V30 25 1 21 26
M  V30 26 1 23 27
M  V30 27 1 27 28
M  V30 28 1 28 29
M  V30 29 2 29 30
M  V30 30 1 28 31
M  V30 31 1 27 32
M  V30 32 1 29 33
M  V30 33 1 33 34
M  V30 34 1 34 35
M  V30 35 2 35 36
M  V30 36 1 34 37
M  V30 37 1 33 38
M  V30 38 1 35 39
M  V30 39 1 39 40
M  V30 40 1 40 41
M  V30 41 2 41 42
M  V30 42 1 40 43
M  V30 43 1 41 44
M  V30 44 1 44 45
M  V30 45 1 45 46
M  V30 46 2 46 47
M  V30 47 1 45 48
M  V30 48 1 44 49
M  V30 49 1 46 50
M  V30 50 1 50 51
M  V30 51 1 51 52
M  V30 52 2 52 53
M  V30 53 1 51 54
M  V30 54 1 50 55
M  V30 55 1 52 56
M  V30 56 1 56 57
M  V30 57 1 57 58
M  V30 58 2 58 59
M  V30 59 2 61 62
M  V30 60 1 61 63
M  V30 61 1 62 64
M  V30 62 1 60 65
M  V30 63 2 63 65
M  V30 64 2 64 66
M  V30 65 1 65 66
M  V30 66 1 61 67
M  V30 67 3 67 68
M  V30 68 1 57 69
M  V30 69 1 56 70
M  V30 70 1 60 71
M  V30 71 1 69 72
M  V30 72 1 71 72
M  V30 73 1 58 73
M  V30 74 1 73 74
M  V30 75 1 74 75
M  V30 76 2 75 76
M  V30 77 1 74 77
M  V30 78 1 73 78
M  V30 79 1 75 79
M  V30 80 1 79 80
M  V30 81 1 80 81
M  V30 82 2 81 82
M  V30 83 1 80 83
M  V30 84 1 79 84
M  V30 85 1 81 85
M  V30 86 1 85 86
M  V30 87 1 86 87
M  V30 88 2 87 88
M  V30 89 1 86 89
M  V30 90 1 87 90
M  V30 91 1 90 91
M  V30 92 1 91 92
M  V30 93 2 92 93
M  V30 94 1 91 94
M  V30 95 1 90 95
M  V30 96 1 92 96
M  V30 97 1 96 97
M  V30 98 1 97 98
M  V30 99 2 98 99
M  V30 100 1 97 100
M  V30 101 1 96 101
M  V30 102 1 98 102
M  V30 103 1 102 103
M  V30 104 1 103 104
M  V30 105 2 104 105
M  V30 106 1 103 106
M  V30 107 1 104 107
M  V30 108 1 107 108
M  V30 109 1 108 109
M  V30 110 2 109 110
M  V30 111 1 108 111
M  V30 112 1 107 112
M  V30 113 1 109 113
M  V30 114 1 113 114
M  V30 115 1 114 115
M  V30 116 2 115 116
M  V30 117 1 114 117
M  V30 118 1 113 118
M  V30 119 1 115 119
M  V30 120 1 119 120
M  V30 121 1 120 121
M  V30 122 2 121 122
M  V30 123 1 120 123
M  V30 124 1 119 124
M  V30 125 1 121 125
M  V30 126 1 125 126
M  V30 127 1 126 127
M  V30 128 2 127 128
M  V30 129 1 126 129
M  V30 130 1 125 130
M  V30 131 1 127 131
M  V30 132 1 131 132
M  V30 133 1 132 133
M  V30 134 2 133 134
M  V30 135 2 135 136
M  V30 136 1 135 137
M  V30 137 1 136 138
M  V30 138 2 137 139
M  V30 139 2 138 140
M  V30 140 1 139 140
M  V30 141 1 140 141
M  V30 142 1 68 142
M  V30 143 3 141 142
M  V30 144 1 137 143
M  V30 145 1 132 144
M  V30 146 1 131 145
M  V30 147 1 143 146
M  V30 148 1 144 147
M  V30 149 1 146 147
M  V30 150 1 133 148
M  V30 151 1 148 149
M  V30 152 1 149 150
M  V30 153 2 150 151
M  V30 154 1 149 152
M  V30 155 1 148 153
M  V30 156 1 150 154
M  V30 157 1 154 155
M  V30 158 1 155 156
M  V30 159 2 156 157
M  V30 160 1 155 158
M  V30 161 1 156 159
M  V30 162 1 159 160
M  V30 163 1 160 161
M  V30 164 2 161 162
M  V30 165 1 160 163
M  V30 166 1 159 164
M  V30 167 1 161 165
M  V30 168 1 165 166
M  V30 169 1 166 167
M  V30 170 2 167 168
M  V30 171 1 166 169
M  V30 172 1 165 170
M  V30 173 1 167 171
M  V30 174 1 171 172
M  V30 175 1 172 173
M  V30 176 2 173 174
M  V30 177 1 172 175
M  V30 178 1 171 176
M  V30 179 1 173 177
M  V30 180 1 177 178
M  V30 181 1 178 179
M  V30 182 2 179 180
M  V30 183 1 178 181
M  V30 184 1 177 182
M  V30 185 1 179 183
M  V30 186 1 183 184
M  V30 187 1 184 185
M  V30 188 2 185 186
M  V30 189 1 184 187
M  V30 190 1 183 188
M  V30 191 1 185 189
M  V30 192 1 189 190
M  V30 193 1 190 191
M  V30 194 2 191 192
M  V30 195 2 191 193
M  V30 196 1 190 194
M  V30 197 1 189 195
M  V30 198 1 57 196
M  V30 199 1 102 197
M  V30 200 1 154 198
M  V30 201 1 2 199
M  V30 202 1 5 200
M  V30 203 1 5 201
M  V30 204 1 5 202
M  V30 205 1 10 203
M  V30 206 1 13 204
M  V30 207 1 13 205
M  V30 208 1 13 206
M  V30 209 1 16 207
M  V30 210 1 19 208
M  V30 211 1 19 209
M  V30 212 1 19 210
M  V30 213 1 22 211
M  V30 214 1 25 212
M  V30 215 1 25 213
M  V30 216 1 25 214
M  V30 217 1 28 215
M  V30 218 1 31 216
M  V30 219 1 31 217
M  V30 220 1 31 218
M  V30 221 1 34 219
M  V30 222 1 37 220
M  V30 223 1 37 221
M  V30 224 1 37 222
M  V30 225 1 40 223
M  V30 226 1 43 224
M  V30 227 1 43 225
M  V30 228 1 43 226
M  V30 229 1 45 227
M  V30 230 1 48 228
M  V30 231 1 48 229
M  V30 232 1 48 230
M  V30 233 1 51 231
M  V30 234 1 54 232
M  V30 235 1 54 233
M  V30 236 1 54 234
M  V30 237 1 60 235
M  V30 238 1 63 236
M  V30 239 1 64 237
M  V30 240 1 66 238
M  V30 241 1 69 239
M  V30 242 1 69 240
M  V30 243 1 71 241
M  V30 244 1 71 242
M  V30 245 1 72 243
M  V30 246 1 72 244
M  V30 247 1 74 245
M  V30 248 1 77 246
M  V30 249 1 77 247
M  V30 250 1 77 248
M  V30 251 1 83 249
M  V30 252 1 83 250
M  V30 253 1 83 251
M  V30 254 1 86 252
M  V30 255 1 89 253
M  V30 256 1 89 254
M  V30 257 1 89 255
M  V30 258 1 91 256
M  V30 259 1 94 257
M  V30 260 1 94 258
M  V30 261 1 94 259
M  V30 262 1 97 260
M  V30 263 1 100 261
M  V30 264 1 100 262
M  V30 265 1 100 263
M  V30 266 1 103 264
M  V30 267 1 106 265
M  V30 268 1 106 266
M  V30 269 1 106 267
M  V30 270 1 108 268
M  V30 271 1 111 269
M  V30 272 1 111 270
M  V30 273 1 111 271
M  V30 274 1 114 272
M  V30 275 1 117 273
M  V30 276 1 117 274
M  V30 277 1 117 275
M  V30 278 1 120 276
M  V30 279 1 123 277
M  V30 280 1 123 278
M  V30 281 1 123 279
M  V30 282 1 126 280
M  V30 283 1 129 281
M  V30 284 1 129 282
M  V30 285 1 129 283
M  V30 286 1 135 284
M  V30 287 1 136 285
M  V30 288 1 138 286
M  V30 289 1 139 287
M  V30 290 1 143 288
M  V30 291 1 143 289
M  V30 292 1 144 290
M  V30 293 1 144 291
M  V30 294 1 146 292
M  V30 295 1 146 293
M  V30 296 1 147 294
M  V30 297 1 147 295
M  V30 298 1 149 296
M  V30 299 1 152 297
M  V30 300 1 152 298
M  V30 301 1 152 299
M  V30 302 1 155 300
M  V30 303 1 158 301
M  V30 304 1 158 302
M  V30 305 1 158 303
M  V30 306 1 160 304
M  V30 307 1 163 305
M  V30 308 1 163 306
M  V30 309 1 163 307
M  V30 310 1 166 308
M  V30 311 1 169 309
M  V30 312 1 169 310
M  V30 313 1 169 311
M  V30 314 1 172 312
M  V30 315 1 175 313
M  V30 316 1 175 314
M  V30 317 1 175 315
M  V30 318 1 178 316
M  V30 319 1 181 317
M  V30 320 1 181 318
M  V30 321 1 181 319
M  V30 322 1 184 320
M  V30 323 1 187 321
M  V30 324 1 187 322
M  V30 325 1 187 323
M  V30 326 1 190 324
M  V30 327 1 194 325
M  V30 328 1 194 326
M  V30 329 1 194 327
M  V30 330 1 39 328
M  V30 331 1 60 329
M  V30 332 1 62 330
M  V30 333 1 80 331
M  V30 334 1 85 332
M  V30 335 1 196 333
M  V30 336 1 196 334
M  V30 337 1 196 335
M  V30 338 1 132 336
M  V30 339 1 336 337
M  V30 340 1 336 338
M  V30 341 1 336 339
M  V30 END BOND
M  V30 END CTAB
M  END
> <MOL Chiral Flag>
0


> <Index>
0

> <NAME>
Idealised ?-helix


$$$$
