
 OpenBabel10272520223D

333335  0  0  0  0  0  0  0  0999 V2000
  -13.6202  -12.8440  -12.8497 N   0  3  0  0  0  0  0  0  0  0  0  0
  -12.1712  -12.8440  -12.8497 C   0  0  2  0  0  0  0  0  0  0  0  0
  -11.6481  -11.4147  -12.8497 C   0  0  0  0  0  0  0  0  0  0  0  0
  -10.7555  -11.0791  -12.0745 O   0  0  0  0  0  0  0  0  0  0  0  0
  -11.6222  -13.5554  -14.0818 C   0  0  0  0  0  0  0  0  0  0  0  0
  -13.9602  -12.3631  -12.0169 H   0  0  0  0  0  0  0  0  0  0  0  0
  -13.9602  -13.8057  -12.8497 H   0  0  0  0  0  0  0  0  0  0  0  0
  -13.9602  -12.3632  -13.6825 H   0  0  0  0  0  0  0  0  0  0  0  0
  -11.8483  -13.3590  -11.9692 H   0  0  0  0  0  0  0  0  0  0  0  0
  -11.9442  -13.0416  -14.9634 H   0  0  0  0  0  0  0  0  0  0  0  0
  -11.9843  -14.5621  -14.1033 H   0  0  0  0  0  0  0  0  0  0  0  0
  -10.5529  -13.5617  -14.0432 H   0  0  0  0  0  0  0  0  0  0  0  0
  -12.2072  -10.5736  -13.7227 N   0  0  0  0  0  0  0  0  0  0  0  0
  -11.7971   -9.1873  -13.8206 C   0  0  2  0  0  0  0  0  0  0  0  0
  -11.9512   -8.4997  -12.4715 C   0  0  0  0  0  0  0  0  0  0  0  0
  -11.0442   -7.8032  -12.0213 O   0  0  0  0  0  0  0  0  0  0  0  0
  -12.6441   -8.4350  -14.8416 C   0  0  0  0  0  0  0  0  0  0  0  0
  -12.9187  -10.9048  -14.3171 H   0  0  0  0  0  0  0  0  0  0  0  0
  -10.7731   -9.1746  -14.1306 H   0  0  0  0  0  0  0  0  0  0  0  0
  -13.6686   -8.4468  -14.5331 H   0  0  0  0  0  0  0  0  0  0  0  0
  -12.5540   -8.9076  -15.7973 H   0  0  0  0  0  0  0  0  0  0  0  0
  -12.3040   -7.4228  -14.9107 H   0  0  0  0  0  0  0  0  0  0  0  0
  -13.1040   -8.6976  -11.8280 N   0  0  0  0  0  0  0  0  0  0  0  0
  -13.3725   -8.0983  -10.5363 C   0  0  2  0  0  0  0  0  0  0  0  0
  -12.2994   -8.5063   -9.5371 C   0  0  0  0  0  0  0  0  0  0  0  0
  -11.7687   -7.6644   -8.8160 O   0  0  0  0  0  0  0  0  0  0  0  0
  -14.7264   -8.5448   -9.9948 C   0  0  0  0  0  0  0  0  0  0  0  0
  -13.7915   -9.2671  -12.2430 H   0  0  0  0  0  0  0  0  0  0  0  0
  -13.3753   -7.0364  -10.6673 H   0  0  0  0  0  0  0  0  0  0  0  0
  -14.7253   -9.6067   -9.8632 H   0  0  0  0  0  0  0  0  0  0  0  0
  -15.4951   -8.2720  -10.6873 H   0  0  0  0  0  0  0  0  0  0  0  0
  -14.9087   -8.0690   -9.0539 H   0  0  0  0  0  0  0  0  0  0  0  0
  -11.9818   -9.8023   -9.4969 N   0  0  0  0  0  0  0  0  0  0  0  0
  -10.9761  -10.3165   -8.5892 C   0  0  2  0  0  0  0  0  0  0  0  0
   -9.6514   -9.6028   -8.8178 C   0  0  0  0  0  0  0  0  0  0  0  0
   -9.0045   -9.1722   -7.8656 O   0  0  0  0  0  0  0  0  0  0  0  0
  -10.7583  -11.8109   -8.8006 C   0  0  0  0  0  0  0  0  0  0  0  0
  -12.4442  -10.4268  -10.1014 H   0  0  0  0  0  0  0  0  0  0  0  0
  -11.3239  -10.1463   -7.5917 H   0  0  0  0  0  0  0  0  0  0  0  0
  -10.4104  -11.9831   -9.7977 H   0  0  0  0  0  0  0  0  0  0  0  0
  -11.6814  -12.3307   -8.6502 H   0  0  0  0  0  0  0  0  0  0  0  0
  -10.0303  -12.1675   -8.1022 H   0  0  0  0  0  0  0  0  0  0  0  0
   -9.2499   -9.4791  -10.0850 N   0  0  0  0  0  0  0  0  0  0  0  0
   -8.0074   -8.8201  -10.4336 C   0  0  2  0  0  0  0  0  0  0  0  0
   -7.9971   -7.3999   -9.8866 C   0  0  0  0  0  0  0  0  0  0  0  0
   -7.0143   -6.9721   -9.2854 O   0  0  0  0  0  0  0  0  0  0  0  0
   -7.8276   -8.7524  -11.9465 C   0  0  0  0  0  0  0  0  0  0  0  0
   -9.8143   -9.8462  -10.8033 H   0  0  0  0  0  0  0  0  0  0  0  0
   -7.2088   -9.3898  -10.0064 H   0  0  0  0  0  0  0  0  0  0  0  0
   -8.6255   -8.1830  -12.3754 H   0  0  0  0  0  0  0  0  0  0  0  0
   -7.8383   -9.7427  -12.3516 H   0  0  0  0  0  0  0  0  0  0  0  0
   -6.8928   -8.2841  -12.1740 H   0  0  0  0  0  0  0  0  0  0  0  0
   -9.0951   -6.6703  -10.0971 N   0  0  0  0  0  0  0  0  0  0  0  0
   -9.2087   -5.3046   -9.6257 C   0  0  2  0  0  0  0  0  0  0  0  0
   -8.9944   -5.2499   -8.1210 C   0  0  0  0  0  0  0  0  0  0  0  0
   -8.2442   -4.4112   -7.6286 O   0  0  0  0  0  0  0  0  0  0  0  0
  -10.5876   -4.7306   -9.9345 C   0  0  0  0  0  0  0  0  0  0  0  0
   -9.8492   -7.0717  -10.5864 H   0  0  0  0  0  0  0  0  0  0  0  0
   -8.4628   -4.7259  -10.1301 H   0  0  0  0  0  0  0  0  0  0  0  0
  -11.3348   -5.3081   -9.4322 H   0  0  0  0  0  0  0  0  0  0  0  0
  -10.7603   -4.7652  -10.9903 H   0  0  0  0  0  0  0  0  0  0  0  0
  -10.6352   -3.7160   -9.5983 H   0  0  0  0  0  0  0  0  0  0  0  0
   -9.6566   -6.1524   -7.3889 N   0  0  0  0  0  0  0  0  0  0  0  0
   -9.5361   -6.2038   -5.9458 C   0  0  2  0  0  0  0  0  0  0  0  0
   -8.0788   -6.3824   -5.5499 C   0  0  0  0  0  0  0  0  0  0  0  0
   -7.5846   -5.6827   -4.6681 O   0  0  0  0  0  0  0  0  0  0  0  0
  -10.3365   -7.3671   -5.3717 C   0  0  0  0  0  0  0  0  0  0  0  0
  -10.2424   -6.7986   -7.8448 H   0  0  0  0  0  0  0  0  0  0  0  0
   -9.9181   -5.2833   -5.5574 H   0  0  0  0  0  0  0  0  0  0  0  0
  -11.3663   -7.2631   -5.6460 H   0  0  0  0  0  0  0  0  0  0  0  0
  -10.2498   -7.3675   -4.3051 H   0  0  0  0  0  0  0  0  0  0  0  0
   -7.3931   -7.3244   -6.2016 N   0  0  0  0  0  0  0  0  0  0  0  0
   -5.9965   -7.5911   -5.9141 C   0  0  2  0  0  0  0  0  0  0  0  0
   -5.1754   -6.3230   -6.0913 C   0  0  0  0  0  0  0  0  0  0  0  0
   -4.3594   -5.9864   -5.2369 O   0  0  0  0  0  0  0  0  0  0  0  0
   -5.4397   -8.6588   -6.8505 C   0  0  0  0  0  0  0  0  0  0  0  0
   -7.8469   -7.8516   -6.8981 H   0  0  0  0  0  0  0  0  0  0  0  0
   -5.9354   -7.9379   -4.9047 H   0  0  0  0  0  0  0  0  0  0  0  0
   -5.5006   -8.3140   -7.8616 H   0  0  0  0  0  0  0  0  0  0  0  0
   -6.0097   -9.5582   -6.7454 H   0  0  0  0  0  0  0  0  0  0  0  0
   -4.4175   -8.8532   -6.6009 H   0  0  0  0  0  0  0  0  0  0  0  0
   -5.3919   -5.6190   -7.2055 N   0  0  0  0  0  0  0  0  0  0  0  0
   -4.6722   -4.3944   -7.4902 C   0  0  2  0  0  0  0  0  0  0  0  0
   -4.8728   -3.3953   -6.3598 C   0  0  0  0  0  0  0  0  0  0  0  0
   -3.9139   -2.7928   -5.8841 O   0  0  0  0  0  0  0  0  0  0  0  0
   -3.6361   -4.6445   -7.5880 H   0  0  0  0  0  0  0  0  0  0  0  0
   -4.5993   -2.8702   -8.9839 H   0  0  0  0  0  0  0  0  0  0  0  0
   -5.0364   -4.4489   -9.5933 H   0  0  0  0  0  0  0  0  0  0  0  0
   -5.1642   -3.7583   -8.7860 C   0  0  0  0  0  0  0  0  0  0  0  0
   -6.1254   -3.2219   -5.9309 N   0  0  0  0  0  0  0  0  0  0  0  0
   -5.6573   -2.6539   -3.6103 C   0  0  0  0  0  0  0  0  0  0  0  0
   -5.0684   -1.7806   -2.9772 O   0  0  0  0  0  0  0  0  0  0  0  0
   -6.8508   -3.7354   -6.3547 H   0  0  0  0  0  0  0  0  0  0  0  0
   -7.8355   -1.9393   -4.2122 C   0  0  0  0  0  0  0  0  0  0  0  0
   -8.0885    2.5373    0.7708 C   0  0  0  0  0  0  0  0  0  0  0  0
   -9.4575    2.6265    0.5286 C   0  0  0  0  0  0  0  0  0  0  0  0
   -7.1799    1.8199   -0.0624 C   0  0  0  0  0  0  0  0  0  0  0  0
   -9.9817    2.0154   -0.5885 C   0  0  0  0  0  0  0  0  0  0  0  0
   -7.7469    1.0969   -1.1865 C   0  0  0  0  0  0  0  0  0  0  0  0
   -9.1415    1.2848   -1.4275 C   0  0  0  0  0  0  0  0  0  0  0  0
   -5.8004    2.0598    0.4543 C   0  0  0  0  0  0  0  0  0  0  0  0
   -4.9045    2.5107    1.1587 C   0  0  0  0  0  0  0  0  0  0  0  0
   -7.8727   -1.1819   -2.7274 C   0  0  0  0  0  0  0  0  0  0  0  0
   -7.0942    0.2003   -2.2965 C   0  0  0  0  0  0  0  0  0  0  0  0
   -5.6471   -3.9402   -3.2538 N   0  0  0  0  0  0  0  0  0  0  0  0
   -4.9332   -4.4076   -2.0817 C   0  0  2  0  0  0  0  0  0  0  0  0
   -3.4612   -4.0226   -2.1800 C   0  0  0  0  0  0  0  0  0  0  0  0
   -2.8884   -3.5088   -1.2222 O   0  0  0  0  0  0  0  0  0  0  0  0
   -5.0240   -5.9229   -1.9491 C   0  0  0  0  0  0  0  0  0  0  0  0
   -6.1397   -4.5927   -3.8022 H   0  0  0  0  0  0  0  0  0  0  0  0
   -5.3811   -3.9471   -1.2271 H   0  0  0  0  0  0  0  0  0  0  0  0
   -4.5762   -6.3829   -2.8046 H   0  0  0  0  0  0  0  0  0  0  0  0
   -6.0526   -6.2146   -1.8852 H   0  0  0  0  0  0  0  0  0  0  0  0
   -4.5092   -6.2352   -1.0647 H   0  0  0  0  0  0  0  0  0  0  0  0
   -2.8551   -4.2740   -3.3410 N   0  0  0  0  0  0  0  0  0  0  0  0
   -1.4587   -3.9555   -3.5604 C   0  0  2  0  0  0  0  0  0  0  0  0
   -1.2149   -2.4733   -3.3103 C   0  0  0  0  0  0  0  0  0  0  0  0
   -0.2654   -2.1062   -2.6232 O   0  0  0  0  0  0  0  0  0  0  0  0
   -1.0395   -4.2757   -4.9913 C   0  0  0  0  0  0  0  0  0  0  0  0
   -3.3718   -4.6871   -4.0720 H   0  0  0  0  0  0  0  0  0  0  0  0
   -0.8823   -4.5469   -2.8804 H   0  0  0  0  0  0  0  0  0  0  0  0
   -1.6153   -3.6845   -5.6725 H   0  0  0  0  0  0  0  0  0  0  0  0
   -1.2094   -5.3144   -5.1879 H   0  0  0  0  0  0  0  0  0  0  0  0
   -0.0008   -4.0540   -5.1168 H   0  0  0  0  0  0  0  0  0  0  0  0
   -2.0775   -1.6232   -3.8736 N   0  0  0  0  0  0  0  0  0  0  0  0
   -1.9542   -0.1885   -3.7117 C   0  0  2  0  0  0  0  0  0  0  0  0
   -1.9653    0.1736   -2.2324 C   0  0  0  0  0  0  0  0  0  0  0  0
   -1.1310    0.9523   -1.7774 O   0  0  0  0  0  0  0  0  0  0  0  0
   -3.1058    0.5429   -4.3930 C   0  0  0  0  0  0  0  0  0  0  0  0
   -2.8181   -1.9823   -4.4139 H   0  0  0  0  0  0  0  0  0  0  0  0
   -1.0293    0.1086   -4.1610 H   0  0  0  0  0  0  0  0  0  0  0  0
   -4.0307    0.2458   -3.9437 H   0  0  0  0  0  0  0  0  0  0  0  0
   -3.1192    0.2952   -5.4337 H   0  0  0  0  0  0  0  0  0  0  0  0
   -2.9752    1.5974   -4.2783 H   0  0  0  0  0  0  0  0  0  0  0  0
   -2.9135   -0.3936   -1.4851 N   0  0  0  0  0  0  0  0  0  0  0  0
   -3.0313   -0.1299   -0.0660 C   0  0  2  0  0  0  0  0  0  0  0  0
   -1.7293   -0.4771    0.6399 C   0  0  0  0  0  0  0  0  0  0  0  0
   -1.2309    0.3052    1.4460 O   0  0  0  0  0  0  0  0  0  0  0  0
   -4.1496   -0.9590    0.5564 C   0  0  0  0  0  0  0  0  0  0  0  0
   -3.5528   -1.0090   -1.9117 H   0  0  0  0  0  0  0  0  0  0  0  0
   -3.2541    0.9114    0.0514 H   0  0  0  0  0  0  0  0  0  0  0  0
   -3.9288   -1.9995    0.4396 H   0  0  0  0  0  0  0  0  0  0  0  0
   -5.0747   -0.7327    0.0688 H   0  0  0  0  0  0  0  0  0  0  0  0
   -4.2287   -0.7263    1.5974 H   0  0  0  0  0  0  0  0  0  0  0  0
   -1.1786   -1.6546    0.3326 N   0  0  0  0  0  0  0  0  0  0  0  0
    0.0616   -2.0995    0.9358 C   0  0  2  0  0  0  0  0  0  0  0  0
    1.1638   -1.0829    0.6795 C   0  0  0  0  0  0  0  0  0  0  0  0
    1.8940   -0.7132    1.5971 O   0  0  0  0  0  0  0  0  0  0  0  0
    0.5027   -3.4404    0.3572 C   0  0  0  0  0  0  0  0  0  0  0  0
   -1.6280   -2.2355   -0.3222 H   0  0  0  0  0  0  0  0  0  0  0  0
   -0.1103   -2.2068    1.9860 H   0  0  0  0  0  0  0  0  0  0  0  0
    0.6755   -3.3355   -0.6935 H   0  0  0  0  0  0  0  0  0  0  0  0
   -0.2630   -4.1695    0.5217 H   0  0  0  0  0  0  0  0  0  0  0  0
    1.4052   -3.7565    0.8373 H   0  0  0  0  0  0  0  0  0  0  0  0
    1.2815   -0.6305   -0.5703 N   0  0  0  0  0  0  0  0  0  0  0  0
    2.2910    0.3403   -0.9418 C   0  0  2  0  0  0  0  0  0  0  0  0
    2.1484    1.5942   -0.0916 C   0  0  0  0  0  0  0  0  0  0  0  0
    3.1345    2.1034    0.4361 O   0  0  0  0  0  0  0  0  0  0  0  0
    2.1576    0.7374   -2.4081 C   0  0  0  0  0  0  0  0  0  0  0  0
    0.6647   -0.9665   -1.2601 H   0  0  0  0  0  0  0  0  0  0  0  0
    3.2477   -0.1115   -0.7821 H   0  0  0  0  0  0  0  0  0  0  0  0
    1.2013    1.1894   -2.5696 H   0  0  0  0  0  0  0  0  0  0  0  0
    2.2490   -0.1334   -3.0232 H   0  0  0  0  0  0  0  0  0  0  0  0
    2.9289    1.4348   -2.6603 H   0  0  0  0  0  0  0  0  0  0  0  0
    0.9167    2.0910    0.0385 N   0  0  0  0  0  0  0  0  0  0  0  0
    0.6487    3.2811    0.8223 C   0  0  2  0  0  0  0  0  0  0  0  0
    1.1396    3.0882    2.2505 C   0  0  0  0  0  0  0  0  0  0  0  0
    1.8052    3.9621    2.8026 O   0  0  0  0  0  0  0  0  0  0  0  0
   -0.8442    3.5862    0.8647 C   0  0  0  0  0  0  0  0  0  0  0  0
    0.1678    1.6366   -0.4105 H   0  0  0  0  0  0  0  0  0  0  0  0
    1.1651    4.0956    0.3581 H   0  0  0  0  0  0  0  0  0  0  0  0
   -1.3614    2.7726    1.3279 H   0  0  0  0  0  0  0  0  0  0  0  0
   -1.2096    3.7194   -0.1317 H   0  0  0  0  0  0  0  0  0  0  0  0
   -1.0100    4.4814    1.4272 H   0  0  0  0  0  0  0  0  0  0  0  0
    0.8073    1.9403    2.8453 N   0  0  0  0  0  0  0  0  0  0  0  0
    1.2129    1.6373    4.2037 C   0  0  2  0  0  0  0  0  0  0  0  0
    2.7282    1.7084    4.3260 C   0  0  0  0  0  0  0  0  0  0  0  0
    3.2502    2.3167    5.2584 O   0  0  0  0  0  0  0  0  0  0  0  0
    0.7663    0.2369    4.6103 C   0  0  0  0  0  0  0  0  0  0  0  0
    0.2721    1.2809    2.3488 H   0  0  0  0  0  0  0  0  0  0  0  0
    0.7526    2.3569    4.8463 H   0  0  0  0  0  0  0  0  0  0  0  0
    1.2259   -0.4851    3.9682 H   0  0  0  0  0  0  0  0  0  0  0  0
   -0.2983    0.1633    4.5266 H   0  0  0  0  0  0  0  0  0  0  0  0
    1.0571    0.0492    5.6229 H   0  0  0  0  0  0  0  0  0  0  0  0
    3.4342    1.0866    3.3778 N   0  0  0  0  0  0  0  0  0  0  0  0
    4.8839    1.0824    3.3816 C   0  0  2  0  0  0  0  0  0  0  0  0
    5.4113    2.5099    3.3789 C   0  0  0  0  0  0  0  0  0  0  0  0
    6.3029    2.8449    4.1557 O   0  0  0  0  0  0  0  0  0  0  0  0
    5.4339    0.3655    2.1540 C   0  0  0  0  0  0  0  0  0  0  0  0
    2.9576    0.6180    2.6570 H   0  0  0  0  0  0  0  0  0  0  0  0
    5.2031    0.5692    4.2654 H   0  0  0  0  0  0  0  0  0  0  0  0
    5.1154    0.8777    1.2699 H   0  0  0  0  0  0  0  0  0  0  0  0
    5.0687   -0.6401    2.1343 H   0  0  0  0  0  0  0  0  0  0  0  0
    6.5029    0.3561    2.1950 H   0  0  0  0  0  0  0  0  0  0  0  0
    4.8575    3.3499    2.5020 N   0  0  0  0  0  0  0  0  0  0  0  0
    5.2721    4.7343    2.4005 C   0  0  2  0  0  0  0  0  0  0  0  0
    5.1159    5.4278    3.7476 C   0  0  0  0  0  0  0  0  0  0  0  0
    6.0234    6.1232    4.1965 O   0  0  0  0  0  0  0  0  0  0  0  0
    4.4294    5.4872    1.3752 C   0  0  0  0  0  0  0  0  0  0  0  0
    4.1462    3.0200    1.9071 H   0  0  0  0  0  0  0  0  0  0  0  0
    6.2960    4.7431    2.0928 H   0  0  0  0  0  0  0  0  0  0  0  0
    4.7732    6.4971    1.3040 H   0  0  0  0  0  0  0  0  0  0  0  0
    3.9612    5.2349    4.3879 N   0  0  0  0  0  0  0  0  0  0  0  0
    3.6907    5.8388    5.6778 C   0  0  2  0  0  0  0  0  0  0  0  0
    4.7603    5.4304    6.6808 C   0  0  0  0  0  0  0  0  0  0  0  0
    5.2910    6.2735    7.4001 O   0  0  0  0  0  0  0  0  0  0  0  0
    3.2728    4.6669    3.9726 H   0  0  0  0  0  0  0  0  0  0  0  0
    2.1566    5.3154    6.0484 C   0  0  0  0  0  0  0  0  0  0  0  0
   -1.8289    5.3917    4.8611 C   0  0  0  0  0  0  0  0  0  0  0  0
   -2.0172    6.4310    5.8167 C   0  0  0  0  0  0  0  0  0  0  0  0
   -2.9878    4.9949    4.0786 C   0  0  0  0  0  0  0  0  0  0  0  0
   -3.2190    7.1194    5.9746 C   0  0  0  0  0  0  0  0  0  0  0  0
   -4.1866    5.7376    4.2776 C   0  0  0  0  0  0  0  0  0  0  0  0
   -4.3046    6.7800    5.1952 C   0  0  0  0  0  0  0  0  0  0  0  0
   -3.2603    3.9272    3.0694 C   0  0  0  0  0  0  0  0  0  0  0  0
   -3.8604    3.2495    2.2431 C   0  0  0  0  0  0  0  0  0  0  0  0
   -0.3967    4.7852    4.9468 C   0  0  0  0  0  0  0  0  0  0  0  0
    0.9161    5.7529    5.0908 C   0  0  0  0  0  0  0  0  0  0  0  0
    5.0738    4.1334    6.7247 N   0  0  0  0  0  0  0  0  0  0  0  0
    6.0756    3.6195    7.6381 C   0  0  2  0  0  0  0  0  0  0  0  0
    7.4028    4.3289    7.4096 C   0  0  0  0  0  0  0  0  0  0  0  0
    8.0485    4.7594    8.3626 O   0  0  0  0  0  0  0  0  0  0  0  0
    6.2894    2.1236    7.4318 C   0  0  0  0  0  0  0  0  0  0  0  0
    4.6104    3.5095    6.1215 H   0  0  0  0  0  0  0  0  0  0  0  0
    5.7251    3.7935    8.6339 H   0  0  0  0  0  0  0  0  0  0  0  0
    6.6390    1.9478    6.4351 H   0  0  0  0  0  0  0  0  0  0  0  0
    5.3640    1.6074    7.5804 H   0  0  0  0  0  0  0  0  0  0  0  0
    7.0143    1.7677    8.1327 H   0  0  0  0  0  0  0  0  0  0  0  0
    7.8079    4.4466    6.1433 N   0  0  0  0  0  0  0  0  0  0  0  0
    9.0535    5.1015    5.7964 C   0  0  2  0  0  0  0  0  0  0  0  0
    9.0669    6.5239    6.3388 C   0  0  0  0  0  0  0  0  0  0  0  0
   10.0490    6.9504    6.9408 O   0  0  0  0  0  0  0  0  0  0  0  0
    9.2369    5.1633    4.2837 C   0  0  0  0  0  0  0  0  0  0  0  0
    7.2443    4.0793    5.4260 H   0  0  0  0  0  0  0  0  0  0  0  0
    9.8492    4.5299    6.2275 H   0  0  0  0  0  0  0  0  0  0  0  0
    8.4415    5.7352    3.8505 H   0  0  0  0  0  0  0  0  0  0  0  0
    9.2243    4.1726    3.8816 H   0  0  0  0  0  0  0  0  0  0  0  0
   10.1739    5.6281    4.0568 H   0  0  0  0  0  0  0  0  0  0  0  0
    7.9710    7.2547    6.1231 N   0  0  0  0  0  0  0  0  0  0  0  0
    7.8607    8.6232    6.5891 C   0  0  2  0  0  0  0  0  0  0  0  0
    8.0710    8.6811    8.0961 C   0  0  0  0  0  0  0  0  0  0  0  0
    8.8222    9.5202    8.5862 O   0  0  0  0  0  0  0  0  0  0  0  0
    6.4833    9.2001    6.2760 C   0  0  0  0  0  0  0  0  0  0  0  0
    7.2170    6.8548    5.6330 H   0  0  0  0  0  0  0  0  0  0  0  0
    8.6093    9.1979    6.0854 H   0  0  0  0  0  0  0  0  0  0  0  0
    5.7337    8.6258    6.7778 H   0  0  0  0  0  0  0  0  0  0  0  0
    6.4389   10.2165    6.6085 H   0  0  0  0  0  0  0  0  0  0  0  0
    7.4044    7.7853    8.8279 N   0  0  0  0  0  0  0  0  0  0  0  0
    7.5197    7.7370   10.2701 C   0  0  2  0  0  0  0  0  0  0  0  0
    8.9768    7.5549   10.6729 C   0  0  0  0  0  0  0  0  0  0  0  0
    9.4715    8.2556   11.5527 O   0  0  0  0  0  0  0  0  0  0  0  0
    6.7153    6.5775   10.8471 C   0  0  0  0  0  0  0  0  0  0  0  0
    6.8180    7.1384    8.3732 H   0  0  0  0  0  0  0  0  0  0  0  0
    7.1397    8.6595   10.6563 H   0  0  0  0  0  0  0  0  0  0  0  0
    7.0949    5.6534   10.4625 H   0  0  0  0  0  0  0  0  0  0  0  0
    5.6863    6.6836   10.5703 H   0  0  0  0  0  0  0  0  0  0  0  0
    6.7988    6.5808   11.9142 H   0  0  0  0  0  0  0  0  0  0  0  0
    9.6620    6.6093   10.0252 N   0  0  0  0  0  0  0  0  0  0  0  0
   11.0554    6.3385   10.3161 C   0  0  2  0  0  0  0  0  0  0  0  0
   11.8824    7.6037   10.1374 C   0  0  0  0  0  0  0  0  0  0  0  0
   12.6972    7.9402   10.9937 O   0  0  0  0  0  0  0  0  0  0  0  0
   11.6123    5.2664    9.3855 C   0  0  0  0  0  0  0  0  0  0  0  0
    9.2079    6.0812    9.3297 H   0  0  0  0  0  0  0  0  0  0  0  0
   11.1133    5.9951   11.3278 H   0  0  0  0  0  0  0  0  0  0  0  0
   11.5552    5.6082    8.3732 H   0  0  0  0  0  0  0  0  0  0  0  0
   11.0393    4.3691    9.4919 H   0  0  0  0  0  0  0  0  0  0  0  0
   12.6332    5.0697    9.6385 H   0  0  0  0  0  0  0  0  0  0  0  0
   11.6702    8.3038    9.0207 N   0  0  0  0  0  0  0  0  0  0  0  0
   12.3939    9.5259    8.7339 C   0  0  2  0  0  0  0  0  0  0  0  0
   12.1934   10.5292    9.8607 C   0  0  0  0  0  0  0  0  0  0  0  0
   13.1540   11.1303   10.3365 O   0  0  0  0  0  0  0  0  0  0  0  0
   11.9076   10.1602    7.4352 C   0  0  0  0  0  0  0  0  0  0  0  0
   11.0027    7.9804    8.3733 H   0  0  0  0  0  0  0  0  0  0  0  0
   13.4294    9.2734    8.6395 H   0  0  0  0  0  0  0  0  0  0  0  0
   10.8721   10.4134    7.5278 H   0  0  0  0  0  0  0  0  0  0  0  0
   12.0346    9.4668    6.6302 H   0  0  0  0  0  0  0  0  0  0  0  0
   12.4749   11.0454    7.2363 H   0  0  0  0  0  0  0  0  0  0  0  0
   10.9406   10.7080   10.2860 N   0  0  0  0  0  0  0  0  0  0  0  0
   10.6188   11.6350   11.3522 C   0  0  2  0  0  0  0  0  0  0  0  0
   11.4041   11.2817   12.6072 C   0  0  0  0  0  0  0  0  0  0  0  0
   11.9941   12.1558   13.2384 O   0  0  0  0  0  0  0  0  0  0  0  0
    9.1321   11.5902   11.6886 C   0  0  0  0  0  0  0  0  0  0  0  0
   10.2144   10.1952    9.8630 H   0  0  0  0  0  0  0  0  0  0  0  0
   10.8769   12.6171   11.0151 H   0  0  0  0  0  0  0  0  0  0  0  0
    8.8722   10.6086   12.0260 H   0  0  0  0  0  0  0  0  0  0  0  0
    8.5615   11.8301   10.8158 H   0  0  0  0  0  0  0  0  0  0  0  0
    8.9194   12.3005   12.4601 H   0  0  0  0  0  0  0  0  0  0  0  0
   11.4096    9.9960   12.9668 N   0  0  0  0  0  0  0  0  0  0  0  0
   12.1201    9.5325   14.1415 C   0  0  2  0  0  0  0  0  0  0  0  0
   13.5911    9.9114   14.0465 C   0  0  0  0  0  0  0  0  0  0  0  0
   14.1010   10.4222   15.0413 O   0  0  0  0  0  0  0  0  0  0  0  0
   14.1597    9.6785   12.9822 O   0  0  0  0  0  0  0  0  0  0  0  0
   12.0234    8.0168   14.2790 C   0  0  0  0  0  0  0  0  0  0  0  0
   10.9167    9.3440   12.4180 H   0  0  0  0  0  0  0  0  0  0  0  0
   11.6703    9.9957   14.9947 H   0  0  0  0  0  0  0  0  0  0  0  0
   12.4728    7.5519   13.4265 H   0  0  0  0  0  0  0  0  0  0  0  0
   10.9946    7.7292   14.3412 H   0  0  0  0  0  0  0  0  0  0  0  0
   12.5349    7.7058   15.1659 H   0  0  0  0  0  0  0  0  0  0  0  0
   -6.4471   -2.3001   -4.8612 C   0  0  2  0  0  0  0  0  0  0  0  0
   -5.9729   -0.9121   -5.5052 C   0  0  0  0  0  0  0  0  0  0  0  0
   -9.9565   -8.2884   -5.7611 H   0  0  0  0  0  0  0  0  0  0  0  0
   -6.0604   -5.9412   -7.8518 H   0  0  0  0  0  0  0  0  0  0  0  0
   -6.1997   -3.5079   -8.6905 H   0  0  0  0  0  0  0  0  0  0  0  0
   -8.4275   -1.3271   -4.9042 H   0  0  0  0  0  0  0  0  0  0  0  0
   -8.4013   -2.8724   -4.0844 H   0  0  0  0  0  0  0  0  0  0  0  0
   -7.7122    3.0741    1.6442 H   0  0  0  0  0  0  0  0  0  0  0  0
  -10.0950    3.1985    1.1967 H   0  0  0  0  0  0  0  0  0  0  0  0
  -11.0393    2.1082   -0.8195 H   0  0  0  0  0  0  0  0  0  0  0  0
   -9.6063    0.8676   -2.3191 H   0  0  0  0  0  0  0  0  0  0  0  0
   -7.5824   -1.9319   -1.9783 H   0  0  0  0  0  0  0  0  0  0  0  0
   -8.9449   -1.0506   -2.5508 H   0  0  0  0  0  0  0  0  0  0  0  0
   -7.0172    0.8362   -3.1843 H   0  0  0  0  0  0  0  0  0  0  0  0
   -6.0860   -0.0322   -1.9544 H   0  0  0  0  0  0  0  0  0  0  0  0
    3.4039    5.4806    1.6821 H   0  0  0  0  0  0  0  0  0  0  0  0
    4.5196    5.0116    0.4213 H   0  0  0  0  0  0  0  0  0  0  0  0
    1.9260    5.6649    7.0631 H   0  0  0  0  0  0  0  0  0  0  0  0
    2.1629    4.2252    6.1013 H   0  0  0  0  0  0  0  0  0  0  0  0
   -1.2086    6.7107    6.4909 H   0  0  0  0  0  0  0  0  0  0  0  0
   -3.2998    7.9101    6.7157 H   0  0  0  0  0  0  0  0  0  0  0  0
   -5.0793    5.4870    3.7021 H   0  0  0  0  0  0  0  0  0  0  0  0
   -5.2491    7.3044    5.3080 H   0  0  0  0  0  0  0  0  0  0  0  0
   -0.2840    4.1909    4.0453 H   0  0  0  0  0  0  0  0  0  0  0  0
   -0.4006    4.1028    5.8051 H   0  0  0  0  0  0  0  0  0  0  0  0
    0.6081    6.7460    5.4323 H   0  0  0  0  0  0  0  0  0  0  0  0
    1.2921    5.9186    4.0766 H   0  0  0  0  0  0  0  0  0  0  0  0
    6.3130    9.1624    5.2197 H   0  0  0  0  0  0  0  0  0  0  0  0
   -5.9508   -0.0597   -4.7959 H   0  0  0  0  0  0  0  0  0  0  0  0
   -6.6789   -0.6340   -6.3178 H   0  0  0  0  0  0  0  0  0  0  0  0
   -4.9826   -0.8589   -5.9686 H   0  0  0  0  0  0  0  0  0  0  0  0
    3.6006    7.3726    5.4755 C   0  0  0  0  0  0  0  0  0  0  0  0
    4.5279    7.7924    5.0600 H   0  0  0  0  0  0  0  0  0  0  0  0
    3.3696    7.8905    6.4300 H   0  0  0  0  0  0  0  0  0  0  0  0
    2.7945    7.6095    4.7479 H   0  0  0  0  0  0  0  0  0  0  0  0
  1  2  1  0  0  0  0
  1  6  1  0  0  0  0
  1  7  1  0  0  0  0
  1  8  1  0  0  0  0
  2  3  1  0  0  0  0
  2  5  1  0  0  0  0
  2  9  1  1  0  0  0
  3  4  2  0  0  0  0
  3 13  1  0  0  0  0
  5 10  1  0  0  0  0
  5 11  1  0  0  0  0
  5 12  1  0  0  0  0
 13 14  1  0  0  0  0
 13 18  1  0  0  0  0
 14 15  1  0  0  0  0
 14 17  1  0  0  0  0
 14 19  1  6  0  0  0
 15 16  2  0  0  0  0
 15 23  1  0  0  0  0
 17 20  1  0  0  0  0
 17 21  1  0  0  0  0
 17 22  1  0  0  0  0
 23 24  1  0  0  0  0
 23 28  1  0  0  0  0
 24 25  1  0  0  0  0
 24 27  1  0  0  0  0
 24 29  1  6  0  0  0
 25 26  2  0  0  0  0
 25 33  1  0  0  0  0
 27 30  1  0  0  0  0
 27 31  1  0  0  0  0
 27 32  1  0  0  0  0
 33 34  1  0  0  0  0
 33 38  1  0  0  0  0
 34 35  1  0  0  0  0
 34 37  1  0  0  0  0
 34 39  1  1  0  0  0
 35 36  2  0  0  0  0
 35 43  1  0  0  0  0
 37 40  1  0  0  0  0
 37 41  1  0  0  0  0
 37 42  1  0  0  0  0
 43 44  1  0  0  0  0
 43 48  1  0  0  0  0
 44 45  1  0  0  0  0
 44 47  1  0  0  0  0
 44 49  1  1  0  0  0
 45 46  2  0  0  0  0
 45 53  1  0  0  0  0
 47 50  1  0  0  0  0
 47 51  1  0  0  0  0
 47 52  1  0  0  0  0
 53 54  1  0  0  0  0
 53 58  1  0  0  0  0
 54 55  1  0  0  0  0
 54 57  1  0  0  0  0
 54 59  1  6  0  0  0
 55 56  2  0  0  0  0
 55 63  1  0  0  0  0
 57 60  1  0  0  0  0
 57 61  1  0  0  0  0
 57 62  1  0  0  0  0
 63 64  1  0  0  0  0
 63 68  1  0  0  0  0
 64 65  1  0  0  0  0
 64 67  1  0  0  0  0
 64 69  1  1  0  0  0
 65 66  2  0  0  0  0
 65 72  1  0  0  0  0
 67 70  1  0  0  0  0
 67 71  1  0  0  0  0
 67301  1  0  0  0  0
 72 73  1  0  0  0  0
 72 77  1  0  0  0  0
 73 74  1  0  0  0  0
 73 76  1  0  0  0  0
 73 78  1  1  0  0  0
 74 75  2  0  0  0  0
 74 82  1  0  0  0  0
 76 79  1  0  0  0  0
 76 80  1  0  0  0  0
 76 81  1  0  0  0  0
 82 83  1  0  0  0  0
 82302  1  0  0  0  0
 83 84  1  0  0  0  0
 83 86  1  6  0  0  0
 83 89  1  0  0  0  0
 84 85  2  0  0  0  0
 84 90  1  0  0  0  0
 87 89  1  0  0  0  0
 88 89  1  0  0  0  0
 89303  1  0  0  0  0
 90 93  1  0  0  0  0
 91 92  2  0  0  0  0
 91105  1  0  0  0  0
 91299  1  0  0  0  0
 94103  1  0  0  0  0
 94299  1  0  0  0  0
 94304  1  0  0  0  0
 94305  1  0  0  0  0
 95 96  2  0  0  0  0
 95 97  1  0  0  0  0
 95306  1  0  0  0  0
 96 98  1  0  0  0  0
 96307  1  0  0  0  0
 97 99  2  0  0  0  0
 97101  1  0  0  0  0
 98100  2  0  0  0  0
 98308  1  0  0  0  0
 99100  1  0  0  0  0
 99104  1  0  0  0  0
100309  1  0  0  0  0
101102  3  0  0  0  0
102216  1  0  0  0  0
103104  1  0  0  0  0
103310  1  0  0  0  0
103311  1  0  0  0  0
104312  1  0  0  0  0
104313  1  0  0  0  0
105106  1  0  0  0  0
105110  1  0  0  0  0
106107  1  0  0  0  0
106109  1  0  0  0  0
106111  1  1  0  0  0
107108  2  0  0  0  0
107115  1  0  0  0  0
109112  1  0  0  0  0
109113  1  0  0  0  0
109114  1  0  0  0  0
115116  1  0  0  0  0
115120  1  0  0  0  0
116117  1  0  0  0  0
116119  1  0  0  0  0
116121  1  1  0  0  0
117118  2  0  0  0  0
117125  1  0  0  0  0
119122  1  0  0  0  0
119123  1  0  0  0  0
119124  1  0  0  0  0
125126  1  0  0  0  0
125130  1  0  0  0  0
126127  1  0  0  0  0
126129  1  0  0  0  0
126131  1  6  0  0  0
127128  2  0  0  0  0
127135  1  0  0  0  0
129132  1  0  0  0  0
129133  1  0  0  0  0
129134  1  0  0  0  0
135136  1  0  0  0  0
135140  1  0  0  0  0
136137  1  0  0  0  0
136139  1  0  0  0  0
136141  1  1  0  0  0
137138  2  0  0  0  0
137145  1  0  0  0  0
139142  1  0  0  0  0
139143  1  0  0  0  0
139144  1  0  0  0  0
145146  1  0  0  0  0
145150  1  0  0  0  0
146147  1  0  0  0  0
146149  1  0  0  0  0
146151  1  1  0  0  0
147148  2  0  0  0  0
147155  1  0  0  0  0
149152  1  0  0  0  0
149153  1  0  0  0  0
149154  1  0  0  0  0
155156  1  0  0  0  0
155160  1  0  0  0  0
156157  1  0  0  0  0
156159  1  0  0  0  0
156161  1  1  0  0  0
157158  2  0  0  0  0
157165  1  0  0  0  0
159162  1  0  0  0  0
159163  1  0  0  0  0
159164  1  0  0  0  0
165166  1  0  0  0  0
165170  1  0  0  0  0
166167  1  0  0  0  0
166169  1  0  0  0  0
166171  1  6  0  0  0
167168  2  0  0  0  0
167175  1  0  0  0  0
169172  1  0  0  0  0
169173  1  0  0  0  0
169174  1  0  0  0  0
175176  1  0  0  0  0
175180  1  0  0  0  0
176177  1  0  0  0  0
176179  1  0  0  0  0
176181  1  1  0  0  0
177178  2  0  0  0  0
177185  1  0  0  0  0
179182  1  0  0  0  0
179183  1  0  0  0  0
179184  1  0  0  0  0
185186  1  0  0  0  0
185190  1  0  0  0  0
186187  1  0  0  0  0
186189  1  0  0  0  0
186191  1  1  0  0  0
187188  2  0  0  0  0
187195  1  0  0  0  0
189192  1  0  0  0  0
189193  1  0  0  0  0
189194  1  0  0  0  0
195196  1  0  0  0  0
195200  1  0  0  0  0
196197  1  0  0  0  0
196199  1  0  0  0  0
196201  1  6  0  0  0
197198  2  0  0  0  0
197203  1  0  0  0  0
199202  1  0  0  0  0
199314  1  0  0  0  0
199315  1  0  0  0  0
203204  1  0  0  0  0
203207  1  0  0  0  0
204205  1  1  0  0  0
204208  1  0  0  0  0
204330  1  0  0  0  0
205206  2  0  0  0  0
205219  1  0  0  0  0
208218  1  0  0  0  0
208316  1  0  0  0  0
208317  1  0  0  0  0
209210  2  0  0  0  0
209211  1  0  0  0  0
209217  1  0  0  0  0
210212  1  0  0  0  0
210318  1  0  0  0  0
211213  2  0  0  0  0
211215  1  0  0  0  0
212214  2  0  0  0  0
212319  1  0  0  0  0
213214  1  0  0  0  0
213320  1  0  0  0  0
214321  1  0  0  0  0
215216  3  0  0  0  0
217218  1  0  0  0  0
217322  1  0  0  0  0
217323  1  0  0  0  0
218324  1  0  0  0  0
218325  1  0  0  0  0
219220  1  0  0  0  0
219224  1  0  0  0  0
220221  1  0  0  0  0
220223  1  0  0  0  0
220225  1  1  0  0  0
221222  2  0  0  0  0
221229  1  0  0  0  0
223226  1  0  0  0  0
223227  1  0  0  0  0
223228  1  0  0  0  0
229230  1  0  0  0  0
229234  1  0  0  0  0
230231  1  0  0  0  0
230233  1  0  0  0  0
230235  1  1  0  0  0
231232  2  0  0  0  0
231239  1  0  0  0  0
233236  1  0  0  0  0
233237  1  0  0  0  0
233238  1  0  0  0  0
239240  1  0  0  0  0
239244  1  0  0  0  0
240241  1  0  0  0  0
240243  1  0  0  0  0
240245  1  6  0  0  0
241242  2  0  0  0  0
241248  1  0  0  0  0
243246  1  0  0  0  0
243247  1  0  0  0  0
243326  1  0  0  0  0
248249  1  0  0  0  0
248253  1  0  0  0  0
249250  1  0  0  0  0
249252  1  0  0  0  0
249254  1  1  0  0  0
250251  2  0  0  0  0
250258  1  0  0  0  0
252255  1  0  0  0  0
252256  1  0  0  0  0
252257  1  0  0  0  0
258259  1  0  0  0  0
258263  1  0  0  0  0
259260  1  0  0  0  0
259262  1  0  0  0  0
259264  1  1  0  0  0
260261  2  0  0  0  0
260268  1  0  0  0  0
262265  1  0  0  0  0
262266  1  0  0  0  0
262267  1  0  0  0  0
268269  1  0  0  0  0
268273  1  0  0  0  0
269270  1  0  0  0  0
269272  1  0  0  0  0
269274  1  6  0  0  0
270271  2  0  0  0  0
270278  1  0  0  0  0
272275  1  0  0  0  0
272276  1  0  0  0  0
272277  1  0  0  0  0
278279  1  0  0  0  0
278283  1  0  0  0  0
279280  1  0  0  0  0
279282  1  0  0  0  0
279284  1  6  0  0  0
280281  2  0  0  0  0
280288  1  0  0  0  0
282285  1  0  0  0  0
282286  1  0  0  0  0
282287  1  0  0  0  0
288289  1  0  0  0  0
288294  1  0  0  0  0
289290  1  0  0  0  0
289293  1  0  0  0  0
289295  1  1  0  0  0
290291  2  0  0  0  0
290292  2  0  0  0  0
293296  1  0  0  0  0
293297  1  0  0  0  0
293298  1  0  0  0  0
299 90  1  6  0  0  0
299300  1  0  0  0  0
300327  1  0  0  0  0
300328  1  0  0  0  0
300329  1  0  0  0  0
330331  1  0  0  0  0
330332  1  0  0  0  0
330333  1  0  0  0  0
M  CHG  1   1   1
M  END
>  <MOL Chiral Flag>
0

>  <Index>
0

>  <NAME>
Idealised ?-helix

$$$$
