
 OpenBabel10272520503D

333335  0  0  0  0  0  0  0  0999 V2000
  -13.6202  -12.8440  -12.8497 N   0  3  0  0  0  0  0  0  0  0  0  0
  -12.1712  -12.8440  -12.8497 C   0  0  2  0  0  0  0  0  0  0  0  0
  -11.6481  -11.4147  -12.8497 C   0  0  0  0  0  0  0  0  0  0  0  0
  -10.7555  -11.0791  -12.0745 O   0  0  0  0  0  0  0  0  0  0  0  0
  -11.6222  -13.5554  -14.0818 C   0  0  0  0  0  0  0  0  0  0  0  0
  -13.9602  -12.3631  -12.0169 H   0  0  0  0  0  0  0  0  0  0  0  0
  -13.9602  -13.8057  -12.8497 H   0  0  0  0  0  0  0  0  0  0  0  0
  -13.9602  -12.3632  -13.6825 H   0  0  0  0  0  0  0  0  0  0  0  0
  -11.8483  -13.3590  -11.9692 H   0  0  0  0  0  0  0  0  0  0  0  0
  -11.9442  -13.0416  -14.9634 H   0  0  0  0  0  0  0  0  0  0  0  0
  -11.9843  -14.5621  -14.1033 H   0  0  0  0  0  0  0  0  0  0  0  0
  -10.5529  -13.5617  -14.0432 H   0  0  0  0  0  0  0  0  0  0  0  0
  -12.2072  -10.5736  -13.7227 N   0  0  0  0  0  0  0  0  0  0  0  0
  -11.7971   -9.1873  -13.8206 C   0  0  2  0  0  0  0  0  0  0  0  0
  -11.9512   -8.4997  -12.4715 C   0  0  0  0  0  0  0  0  0  0  0  0
  -11.0442   -7.8032  -12.0213 O   0  0  0  0  0  0  0  0  0  0  0  0
  -12.6441   -8.4350  -14.8416 C   0  0  0  0  0  0  0  0  0  0  0  0
  -12.9187  -10.9048  -14.3171 H   0  0  0  0  0  0  0  0  0  0  0  0
  -10.7731   -9.1746  -14.1306 H   0  0  0  0  0  0  0  0  0  0  0  0
  -13.6686   -8.4468  -14.5331 H   0  0  0  0  0  0  0  0  0  0  0  0
  -12.5540   -8.9076  -15.7973 H   0  0  0  0  0  0  0  0  0  0  0  0
  -12.3040   -7.4228  -14.9107 H   0  0  0  0  0  0  0  0  0  0  0  0
  -13.1040   -8.6976  -11.8280 N   0  0  0  0  0  0  0  0  0  0  0  0
  -13.3725   -8.0983  -10.5363 C   0  0  2  0  0  0  0  0  0  0  0  0
  -12.2994   -8.5063   -9.5371 C   0  0  0  0  0  0  0  0  0  0  0  0
  -11.7690   -7.6649   -8.8158 O   0  0  0  0  0  0  0  0  0  0  0  0
  -14.7264   -8.5448   -9.9948 C   0  0  0  0  0  0  0  0  0  0  0  0
  -13.7915   -9.2671  -12.2430 H   0  0  0  0  0  0  0  0  0  0  0  0
  -13.3753   -7.0364  -10.6673 H   0  0  0  0  0  0  0  0  0  0  0  0
  -14.7253   -9.6067   -9.8632 H   0  0  0  0  0  0  0  0  0  0  0  0
  -15.4951   -8.2720  -10.6873 H   0  0  0  0  0  0  0  0  0  0  0  0
  -14.9087   -8.0690   -9.0539 H   0  0  0  0  0  0  0  0  0  0  0  0
  -11.9818   -9.8023   -9.4969 N   0  0  0  0  0  0  0  0  0  0  0  0
  -10.9761  -10.3165   -8.5892 C   0  0  2  0  0  0  0  0  0  0  0  0
   -9.6514   -9.6028   -8.8178 C   0  0  0  0  0  0  0  0  0  0  0  0
   -9.0047   -9.1718   -7.8655 O   0  0  0  0  0  0  0  0  0  0  0  0
  -10.7583  -11.8109   -8.8006 C   0  0  0  0  0  0  0  0  0  0  0  0
  -12.4442  -10.4268  -10.1014 H   0  0  0  0  0  0  0  0  0  0  0  0
  -11.3238  -10.1463   -7.5914 H   0  0  0  0  0  0  0  0  0  0  0  0
  -10.4104  -11.9831   -9.7977 H   0  0  0  0  0  0  0  0  0  0  0  0
  -11.6814  -12.3307   -8.6502 H   0  0  0  0  0  0  0  0  0  0  0  0
  -10.0303  -12.1675   -8.1022 H   0  0  0  0  0  0  0  0  0  0  0  0
   -9.2499   -9.4791  -10.0850 N   0  0  0  0  0  0  0  0  0  0  0  0
   -8.0074   -8.8201  -10.4336 C   0  0  2  0  0  0  0  0  0  0  0  0
   -7.9968   -7.4001   -9.8871 C   0  0  0  0  0  0  0  0  0  0  0  0
   -7.0126   -6.9723   -9.2855 O   0  0  0  0  0  0  0  0  0  0  0  0
   -7.8276   -8.7524  -11.9465 C   0  0  0  0  0  0  0  0  0  0  0  0
   -9.8143   -9.8462  -10.8033 H   0  0  0  0  0  0  0  0  0  0  0  0
   -7.2088   -9.3898  -10.0064 H   0  0  0  0  0  0  0  0  0  0  0  0
   -8.6255   -8.1830  -12.3754 H   0  0  0  0  0  0  0  0  0  0  0  0
   -7.8383   -9.7427  -12.3516 H   0  0  0  0  0  0  0  0  0  0  0  0
   -6.8928   -8.2841  -12.1740 H   0  0  0  0  0  0  0  0  0  0  0  0
   -9.0953   -6.6690  -10.0969 N   0  0  0  0  0  0  0  0  0  0  0  0
   -9.2091   -5.3040   -9.6259 C   0  0  2  0  0  0  0  0  0  0  0  0
   -8.9947   -5.2498   -8.1208 C   0  0  0  0  0  0  0  0  0  0  0  0
   -8.2441   -4.4096   -7.6303 O   0  0  0  0  0  0  0  0  0  0  0  0
  -10.5888   -4.7297   -9.9343 C   0  0  0  0  0  0  0  0  0  0  0  0
   -9.8492   -7.0717  -10.5864 H   0  0  0  0  0  0  0  0  0  0  0  0
   -8.4634   -4.7270  -10.1296 H   0  0  0  0  0  0  0  0  0  0  0  0
  -11.3338   -5.3072   -9.4326 H   0  0  0  0  0  0  0  0  0  0  0  0
  -10.6345   -3.7162   -9.5979 H   0  0  0  0  0  0  0  0  0  0  0  0
   -9.6561   -6.1520   -7.3891 N   0  0  0  0  0  0  0  0  0  0  0  0
   -9.5364   -6.2046   -5.9473 C   0  0  2  0  0  0  0  0  0  0  0  0
   -8.0776   -6.3820   -5.5492 C   0  0  0  0  0  0  0  0  0  0  0  0
   -7.5861   -5.6837   -4.6687 O   0  0  0  0  0  0  0  0  0  0  0  0
  -10.3355   -7.3664   -5.3717 C   0  0  0  0  0  0  0  0  0  0  0  0
   -9.9176   -5.2834   -5.5583 H   0  0  0  0  0  0  0  0  0  0  0  0
   -9.9556   -8.2897   -5.7611 H   0  0  0  0  0  0  0  0  0  0  0  0
  -11.3659   -7.2636   -5.6466 H   0  0  0  0  0  0  0  0  0  0  0  0
  -10.2495   -7.3685   -4.3041 H   0  0  0  0  0  0  0  0  0  0  0  0
   -7.3935   -7.3250   -6.2015 N   0  0  0  0  0  0  0  0  0  0  0  0
   -5.9964   -7.5903   -5.9141 C   0  0  2  0  0  0  0  0  0  0  0  0
   -5.1747   -6.3237   -6.0904 C   0  0  0  0  0  0  0  0  0  0  0  0
   -4.3607   -5.9867   -5.2349 O   0  0  0  0  0  0  0  0  0  0  0  0
   -5.4391   -8.6589   -6.8514 C   0  0  0  0  0  0  0  0  0  0  0  0
   -7.8455   -7.8517   -6.8979 H   0  0  0  0  0  0  0  0  0  0  0  0
   -5.9351   -7.9387   -4.9045 H   0  0  0  0  0  0  0  0  0  0  0  0
   -5.5000   -8.3143   -7.8623 H   0  0  0  0  0  0  0  0  0  0  0  0
   -6.0093   -9.5582   -6.7450 H   0  0  0  0  0  0  0  0  0  0  0  0
   -5.3916   -5.6182   -7.2055 N   0  0  0  0  0  0  0  0  0  0  0  0
   -4.6709   -4.3941   -7.4916 C   0  0  2  0  0  0  0  0  0  0  0  0
   -4.8745   -3.3963   -6.3579 C   0  0  0  0  0  0  0  0  0  0  0  0
   -3.9127   -2.7923   -5.8835 O   0  0  0  0  0  0  0  0  0  0  0  0
   -6.0607   -5.9434   -7.8516 H   0  0  0  0  0  0  0  0  0  0  0  0
   -3.6362   -4.6443   -7.5884 H   0  0  0  0  0  0  0  0  0  0  0  0
   -6.2014   -3.5094   -8.6890 H   0  0  0  0  0  0  0  0  0  0  0  0
   -5.0370   -4.4474   -9.5936 H   0  0  0  0  0  0  0  0  0  0  0  0
   -5.1640   -3.7580   -8.7867 C   0  0  0  0  0  0  0  0  0  0  0  0
   -6.1259   -3.2223   -5.9311 N   0  0  0  0  0  0  0  0  0  0  0  0
   -6.4472   -2.3010   -4.8620 C   0  0  2  0  0  0  0  0  0  0  0  0
   -5.6575   -2.6525   -3.6116 C   0  0  0  0  0  0  0  0  0  0  0  0
   -5.0681   -1.7812   -2.9765 O   0  0  0  0  0  0  0  0  0  0  0  0
   -6.8498   -3.7362   -6.3540 H   0  0  0  0  0  0  0  0  0  0  0  0
   -7.2757   -0.4295    1.6312 C   0  0  0  0  0  0  0  0  0  0  0  0
   -7.7528    0.4887    0.6939 C   0  0  0  0  0  0  0  0  0  0  0  0
   -7.3975   -1.7947    1.3467 C   0  0  0  0  0  0  0  0  0  0  0  0
   -8.2984    0.0532   -0.5232 C   0  0  0  0  0  0  0  0  0  0  0  0
   -7.9484   -2.2312    0.1212 C   0  0  0  0  0  0  0  0  0  0  0  0
   -8.3760   -1.3110   -0.8483 C   0  0  0  0  0  0  0  0  0  0  0  0
   -6.5232    0.0534    2.7670 C   0  0  0  0  0  0  0  0  0  0  0  0
   -5.7436    0.5120    3.5657 C   0  0  0  0  0  0  0  0  0  0  0  0
   -9.0256   -1.7059   -2.1651 C   0  0  0  0  0  0  0  0  0  0  0  0
   -8.0107   -2.6106   -4.4284 C   0  0  0  0  0  0  0  0  0  0  0  0
   -8.4542   -2.9002   -2.9556 C   0  0  0  0  0  0  0  0  0  0  0  0
   -5.6470   -3.9415   -3.2534 N   0  0  0  0  0  0  0  0  0  0  0  0
   -4.9321   -4.4073   -2.0803 C   0  0  2  0  0  0  0  0  0  0  0  0
   -3.4612   -4.0231   -2.1791 C   0  0  0  0  0  0  0  0  0  0  0  0
   -2.8884   -3.5081   -1.2224 O   0  0  0  0  0  0  0  0  0  0  0  0
   -5.0236   -5.9233   -1.9489 C   0  0  0  0  0  0  0  0  0  0  0  0
   -6.1393   -4.5928   -3.8022 H   0  0  0  0  0  0  0  0  0  0  0  0
   -5.3814   -3.9472   -1.2262 H   0  0  0  0  0  0  0  0  0  0  0  0
   -4.5760   -6.3843   -2.8041 H   0  0  0  0  0  0  0  0  0  0  0  0
   -6.0522   -6.2149   -1.8841 H   0  0  0  0  0  0  0  0  0  0  0  0
   -4.5089   -6.2348   -1.0653 H   0  0  0  0  0  0  0  0  0  0  0  0
   -2.8547   -4.2733   -3.3412 N   0  0  0  0  0  0  0  0  0  0  0  0
   -1.4592   -3.9563   -3.5611 C   0  0  2  0  0  0  0  0  0  0  0  0
   -1.2145   -2.4731   -3.3113 C   0  0  0  0  0  0  0  0  0  0  0  0
   -0.2652   -2.1069   -2.6234 O   0  0  0  0  0  0  0  0  0  0  0  0
   -1.0394   -4.2761   -4.9912 C   0  0  0  0  0  0  0  0  0  0  0  0
   -3.3718   -4.6866   -4.0715 H   0  0  0  0  0  0  0  0  0  0  0  0
   -0.8823   -4.5470   -2.8803 H   0  0  0  0  0  0  0  0  0  0  0  0
   -1.6153   -3.6852   -5.6711 H   0  0  0  0  0  0  0  0  0  0  0  0
   -1.2089   -5.3140   -5.1883 H   0  0  0  0  0  0  0  0  0  0  0  0
   -0.0006   -4.0535   -5.1165 H   0  0  0  0  0  0  0  0  0  0  0  0
   -2.0776   -1.6229   -3.8733 N   0  0  0  0  0  0  0  0  0  0  0  0
   -1.9540   -0.1869   -3.7113 C   0  0  2  0  0  0  0  0  0  0  0  0
   -1.9641    0.1742   -2.2334 C   0  0  0  0  0  0  0  0  0  0  0  0
   -1.1296    0.9523   -1.7788 O   0  0  0  0  0  0  0  0  0  0  0  0
   -3.1050    0.5430   -4.3921 C   0  0  0  0  0  0  0  0  0  0  0  0
   -2.8183   -1.9826   -4.4135 H   0  0  0  0  0  0  0  0  0  0  0  0
   -1.0287    0.1084   -4.1622 H   0  0  0  0  0  0  0  0  0  0  0  0
   -4.0304    0.2452   -3.9444 H   0  0  0  0  0  0  0  0  0  0  0  0
   -3.1197    0.2951   -5.4308 H   0  0  0  0  0  0  0  0  0  0  0  0
   -2.9742    1.5991   -4.2790 H   0  0  0  0  0  0  0  0  0  0  0  0
   -2.9155   -0.3927   -1.4833 N   0  0  0  0  0  0  0  0  0  0  0  0
   -3.0313   -0.1281   -0.0676 C   0  0  2  0  0  0  0  0  0  0  0  0
   -1.7289   -0.4782    0.6388 C   0  0  0  0  0  0  0  0  0  0  0  0
   -1.2317    0.3048    1.4457 O   0  0  0  0  0  0  0  0  0  0  0  0
   -4.1490   -0.9613    0.5559 C   0  0  0  0  0  0  0  0  0  0  0  0
   -3.5530   -1.0091   -1.9135 H   0  0  0  0  0  0  0  0  0  0  0  0
   -3.2525    0.9111    0.0518 H   0  0  0  0  0  0  0  0  0  0  0  0
   -5.0749   -0.7326    0.0687 H   0  0  0  0  0  0  0  0  0  0  0  0
   -4.2280   -0.7258    1.5959 H   0  0  0  0  0  0  0  0  0  0  0  0
   -1.1789   -1.6541    0.3334 N   0  0  0  0  0  0  0  0  0  0  0  0
    0.0609   -2.0987    0.9351 C   0  0  2  0  0  0  0  0  0  0  0  0
    1.1656   -1.0840    0.6790 C   0  0  0  0  0  0  0  0  0  0  0  0
    1.8946   -0.7128    1.5971 O   0  0  0  0  0  0  0  0  0  0  0  0
    0.5014   -3.4397    0.3586 C   0  0  0  0  0  0  0  0  0  0  0  0
   -1.6294   -2.2338   -0.3231 H   0  0  0  0  0  0  0  0  0  0  0  0
   -0.1120   -2.2085    1.9868 H   0  0  0  0  0  0  0  0  0  0  0  0
    0.6752   -3.3358   -0.6935 H   0  0  0  0  0  0  0  0  0  0  0  0
   -0.2621   -4.1691    0.5209 H   0  0  0  0  0  0  0  0  0  0  0  0
    1.4042   -3.7557    0.8372 H   0  0  0  0  0  0  0  0  0  0  0  0
    1.2813   -0.6304   -0.5702 N   0  0  0  0  0  0  0  0  0  0  0  0
    2.2910    0.3403   -0.9418 C   0  0  2  0  0  0  0  0  0  0  0  0
    2.1488    1.5955   -0.0913 C   0  0  0  0  0  0  0  0  0  0  0  0
    3.1335    2.1031    0.4352 O   0  0  0  0  0  0  0  0  0  0  0  0
    2.1576    0.7374   -2.4081 C   0  0  0  0  0  0  0  0  0  0  0  0
    3.2477   -0.1115   -0.7821 H   0  0  0  0  0  0  0  0  0  0  0  0
    1.2013    1.1894   -2.5696 H   0  0  0  0  0  0  0  0  0  0  0  0
    2.2490   -0.1334   -3.0232 H   0  0  0  0  0  0  0  0  0  0  0  0
    2.9289    1.4348   -2.6603 H   0  0  0  0  0  0  0  0  0  0  0  0
    0.9164    2.0894    0.0384 N   0  0  0  0  0  0  0  0  0  0  0  0
    0.6478    3.2817    0.8217 C   0  0  2  0  0  0  0  0  0  0  0  0
    1.1389    3.0895    2.2509 C   0  0  0  0  0  0  0  0  0  0  0  0
    1.8027    3.9611    2.8021 O   0  0  0  0  0  0  0  0  0  0  0  0
   -0.8445    3.5860    0.8654 C   0  0  0  0  0  0  0  0  0  0  0  0
    0.1683    1.6370   -0.4116 H   0  0  0  0  0  0  0  0  0  0  0  0
    1.1655    4.0939    0.3574 H   0  0  0  0  0  0  0  0  0  0  0  0
   -1.3602    2.7734    1.3284 H   0  0  0  0  0  0  0  0  0  0  0  0
   -1.2098    3.7190   -0.1340 H   0  0  0  0  0  0  0  0  0  0  0  0
   -1.0093    4.4815    1.4275 H   0  0  0  0  0  0  0  0  0  0  0  0
    0.8080    1.9397    2.8456 N   0  0  0  0  0  0  0  0  0  0  0  0
    1.2126    1.6367    4.2045 C   0  0  2  0  0  0  0  0  0  0  0  0
    2.7298    1.7084    4.3243 C   0  0  0  0  0  0  0  0  0  0  0  0
    3.2503    2.3162    5.2583 O   0  0  0  0  0  0  0  0  0  0  0  0
    0.7664    0.2384    4.6114 C   0  0  0  0  0  0  0  0  0  0  0  0
    0.2709    1.2813    2.3482 H   0  0  0  0  0  0  0  0  0  0  0  0
    0.7530    2.3558    4.8487 H   0  0  0  0  0  0  0  0  0  0  0  0
    1.2275   -0.4841    3.9683 H   0  0  0  0  0  0  0  0  0  0  0  0
   -0.2981    0.1617    4.5265 H   0  0  0  0  0  0  0  0  0  0  0  0
    3.4351    1.0869    3.3786 N   0  0  0  0  0  0  0  0  0  0  0  0
    4.8841    1.0835    3.3820 C   0  0  2  0  0  0  0  0  0  0  0  0
    5.4108    2.5113    3.3790 C   0  0  0  0  0  0  0  0  0  0  0  0
    6.3013    2.8458    4.1560 O   0  0  0  0  0  0  0  0  0  0  0  0
    5.4349    0.3655    2.1538 C   0  0  0  0  0  0  0  0  0  0  0  0
    2.9593    0.6168    2.6573 H   0  0  0  0  0  0  0  0  0  0  0  0
    5.2023    0.5681    4.2652 H   0  0  0  0  0  0  0  0  0  0  0  0
    5.1136    0.8780    1.2703 H   0  0  0  0  0  0  0  0  0  0  0  0
    6.5029    0.3561    2.1950 H   0  0  0  0  0  0  0  0  0  0  0  0
    4.8566    3.3498    2.5031 N   0  0  0  0  0  0  0  0  0  0  0  0
    5.2712    4.7350    2.4014 C   0  0  2  0  0  0  0  0  0  0  0  0
    5.1144    5.4274    3.7472 C   0  0  0  0  0  0  0  0  0  0  0  0
    6.0241    6.1225    4.1975 O   0  0  0  0  0  0  0  0  0  0  0  0
    4.4309    5.4868    1.3733 C   0  0  0  0  0  0  0  0  0  0  0  0
    4.1454    3.0197    1.9063 H   0  0  0  0  0  0  0  0  0  0  0  0
    6.2949    4.7443    2.0917 H   0  0  0  0  0  0  0  0  0  0  0  0
    4.7730    6.4972    1.3037 H   0  0  0  0  0  0  0  0  0  0  0  0
    3.9617    5.2356    4.3897 N   0  0  0  0  0  0  0  0  0  0  0  0
    3.6899    5.8413    5.6779 C   0  0  2  0  0  0  0  0  0  0  0  0
    4.7609    5.4311    6.6821 C   0  0  0  0  0  0  0  0  0  0  0  0
    5.2904    6.2732    7.4008 O   0  0  0  0  0  0  0  0  0  0  0  0
    3.2743    4.6662    3.9726 H   0  0  0  0  0  0  0  0  0  0  0  0
   -0.4515    3.5699    7.0906 C   0  0  0  0  0  0  0  0  0  0  0  0
   -1.1969    4.2425    6.1118 C   0  0  0  0  0  0  0  0  0  0  0  0
   -0.7870    2.2326    7.3587 C   0  0  0  0  0  0  0  0  0  0  0  0
   -2.2542    3.6042    5.4340 C   0  0  0  0  0  0  0  0  0  0  0  0
   -1.8498    1.5968    6.6863 C   0  0  0  0  0  0  0  0  0  0  0  0
   -2.5968    2.2810    5.7244 C   0  0  0  0  0  0  0  0  0  0  0  0
   -3.6998    1.6429    5.0407 C   0  0  0  0  0  0  0  0  0  0  0  0
   -4.6145    1.1366    4.4406 C   0  0  0  0  0  0  0  0  0  0  0  0
    0.6062    4.2905    7.9102 C   0  0  0  0  0  0  0  0  0  0  0  0
    2.2299    5.2756    6.1574 C   0  0  0  0  0  0  0  0  0  0  0  0
    2.0646    4.3646    7.3862 C   0  0  0  0  0  0  0  0  0  0  0  0
    5.0741    4.1338    6.7250 N   0  0  0  0  0  0  0  0  0  0  0  0
    6.0766    3.6196    7.6384 C   0  0  2  0  0  0  0  0  0  0  0  0
    7.4032    4.3286    7.4086 C   0  0  0  0  0  0  0  0  0  0  0  0
    8.0482    4.7585    8.3619 O   0  0  0  0  0  0  0  0  0  0  0  0
    6.2903    2.1248    7.4318 C   0  0  0  0  0  0  0  0  0  0  0  0
    4.6105    3.5097    6.1207 H   0  0  0  0  0  0  0  0  0  0  0  0
    5.7254    3.7936    8.6326 H   0  0  0  0  0  0  0  0  0  0  0  0
    6.6393    1.9463    6.4339 H   0  0  0  0  0  0  0  0  0  0  0  0
    5.3638    1.6080    7.5805 H   0  0  0  0  0  0  0  0  0  0  0  0
    7.0149    1.7686    8.1325 H   0  0  0  0  0  0  0  0  0  0  0  0
    7.8082    4.4470    6.1434 N   0  0  0  0  0  0  0  0  0  0  0  0
    9.0517    5.1020    5.7970 C   0  0  2  0  0  0  0  0  0  0  0  0
    9.0666    6.5230    6.3394 C   0  0  0  0  0  0  0  0  0  0  0  0
   10.0496    6.9502    6.9413 O   0  0  0  0  0  0  0  0  0  0  0  0
    9.2371    5.1641    4.2835 C   0  0  0  0  0  0  0  0  0  0  0  0
    7.2435    4.0798    5.4267 H   0  0  0  0  0  0  0  0  0  0  0  0
    9.8487    4.5309    6.2273 H   0  0  0  0  0  0  0  0  0  0  0  0
    8.4403    5.7367    3.8515 H   0  0  0  0  0  0  0  0  0  0  0  0
    9.2243    4.1726    3.8812 H   0  0  0  0  0  0  0  0  0  0  0  0
   10.1743    5.6286    4.0573 H   0  0  0  0  0  0  0  0  0  0  0  0
    7.9718    7.2546    6.1235 N   0  0  0  0  0  0  0  0  0  0  0  0
    7.8619    8.6239    6.5889 C   0  0  2  0  0  0  0  0  0  0  0  0
    8.0711    8.6822    8.0960 C   0  0  0  0  0  0  0  0  0  0  0  0
    8.8225    9.5201    8.5865 O   0  0  0  0  0  0  0  0  0  0  0  0
    6.4852    9.1997    6.2754 C   0  0  0  0  0  0  0  0  0  0  0  0
    7.2154    6.8554    5.6326 H   0  0  0  0  0  0  0  0  0  0  0  0
    8.6090    9.1969    6.0851 H   0  0  0  0  0  0  0  0  0  0  0  0
    5.7340    8.6267    6.7781 H   0  0  0  0  0  0  0  0  0  0  0  0
    6.4392   10.2163    6.6091 H   0  0  0  0  0  0  0  0  0  0  0  0
    7.4062    7.7847    8.8277 N   0  0  0  0  0  0  0  0  0  0  0  0
    7.5189    7.7359   10.2709 C   0  0  2  0  0  0  0  0  0  0  0  0
    8.9763    7.5538   10.6736 C   0  0  0  0  0  0  0  0  0  0  0  0
    9.4715    8.2556   11.5527 O   0  0  0  0  0  0  0  0  0  0  0  0
    6.7156    6.5754   10.8483 C   0  0  0  0  0  0  0  0  0  0  0  0
    7.0950    5.6524   10.4618 H   0  0  0  0  0  0  0  0  0  0  0  0
    5.6866    6.6817   10.5692 H   0  0  0  0  0  0  0  0  0  0  0  0
    6.7982    6.5813   11.9117 H   0  0  0  0  0  0  0  0  0  0  0  0
    9.6627    6.6095   10.0241 N   0  0  0  0  0  0  0  0  0  0  0  0
   11.0554    6.3385   10.3161 C   0  0  2  0  0  0  0  0  0  0  0  0
   11.8824    7.6037   10.1374 C   0  0  0  0  0  0  0  0  0  0  0  0
   12.6972    7.9402   10.9937 O   0  0  0  0  0  0  0  0  0  0  0  0
   11.6123    5.2664    9.3855 C   0  0  0  0  0  0  0  0  0  0  0  0
    9.2070    6.0803    9.3300 H   0  0  0  0  0  0  0  0  0  0  0  0
   11.1133    5.9951   11.3278 H   0  0  0  0  0  0  0  0  0  0  0  0
   11.5552    5.6082    8.3732 H   0  0  0  0  0  0  0  0  0  0  0  0
   11.0393    4.3691    9.4919 H   0  0  0  0  0  0  0  0  0  0  0  0
   12.6332    5.0697    9.6385 H   0  0  0  0  0  0  0  0  0  0  0  0
   11.6702    8.3038    9.0207 N   0  0  0  0  0  0  0  0  0  0  0  0
   12.3939    9.5259    8.7339 C   0  0  2  0  0  0  0  0  0  0  0  0
   12.1934   10.5292    9.8607 C   0  0  0  0  0  0  0  0  0  0  0  0
   13.1540   11.1303   10.3365 O   0  0  0  0  0  0  0  0  0  0  0  0
   11.9076   10.1602    7.4352 C   0  0  0  0  0  0  0  0  0  0  0  0
   11.0027    7.9804    8.3733 H   0  0  0  0  0  0  0  0  0  0  0  0
   13.4294    9.2734    8.6395 H   0  0  0  0  0  0  0  0  0  0  0  0
   10.8721   10.4134    7.5278 H   0  0  0  0  0  0  0  0  0  0  0  0
   12.0346    9.4668    6.6302 H   0  0  0  0  0  0  0  0  0  0  0  0
   12.4749   11.0454    7.2363 H   0  0  0  0  0  0  0  0  0  0  0  0
   10.9406   10.7080   10.2860 N   0  0  0  0  0  0  0  0  0  0  0  0
   10.6188   11.6350   11.3522 C   0  0  2  0  0  0  0  0  0  0  0  0
   11.4041   11.2817   12.6072 C   0  0  0  0  0  0  0  0  0  0  0  0
   11.9941   12.1558   13.2384 O   0  0  0  0  0  0  0  0  0  0  0  0
    9.1321   11.5902   11.6886 C   0  0  0  0  0  0  0  0  0  0  0  0
   10.2144   10.1952    9.8630 H   0  0  0  0  0  0  0  0  0  0  0  0
   10.8769   12.6171   11.0151 H   0  0  0  0  0  0  0  0  0  0  0  0
    8.8722   10.6086   12.0260 H   0  0  0  0  0  0  0  0  0  0  0  0
    8.5615   11.8301   10.8158 H   0  0  0  0  0  0  0  0  0  0  0  0
    8.9194   12.3005   12.4601 H   0  0  0  0  0  0  0  0  0  0  0  0
   11.4096    9.9960   12.9668 N   0  0  0  0  0  0  0  0  0  0  0  0
   12.1201    9.5325   14.1415 C   0  0  2  0  0  0  0  0  0  0  0  0
   13.5911    9.9114   14.0465 C   0  0  0  0  0  0  0  0  0  0  0  0
   14.1010   10.4222   15.0413 O   0  0  0  0  0  0  0  0  0  0  0  0
   14.1597    9.6785   12.9822 O   0  0  0  0  0  0  0  0  0  0  0  0
   12.0234    8.0168   14.2790 C   0  0  0  0  0  0  0  0  0  0  0  0
   10.9167    9.3440   12.4180 H   0  0  0  0  0  0  0  0  0  0  0  0
   11.6703    9.9957   14.9947 H   0  0  0  0  0  0  0  0  0  0  0  0
   12.4728    7.5519   13.4265 H   0  0  0  0  0  0  0  0  0  0  0  0
   10.9946    7.7292   14.3412 H   0  0  0  0  0  0  0  0  0  0  0  0
   12.5349    7.7058   15.1659 H   0  0  0  0  0  0  0  0  0  0  0  0
   -6.5635   -0.8443   -5.2993 C   0  0  0  0  0  0  0  0  0  0  0  0
  -10.7618   -4.7647  -10.9891 H   0  0  0  0  0  0  0  0  0  0  0  0
  -10.2412   -6.8006   -7.8437 H   0  0  0  0  0  0  0  0  0  0  0  0
   -4.4164   -8.8526   -6.6035 H   0  0  0  0  0  0  0  0  0  0  0  0
   -4.6015   -2.8696   -8.9850 H   0  0  0  0  0  0  0  0  0  0  0  0
   -7.6683    1.5567    0.8820 H   0  0  0  0  0  0  0  0  0  0  0  0
   -7.0219   -2.5334    2.0518 H   0  0  0  0  0  0  0  0  0  0  0  0
   -8.6535    0.8022   -1.2283 H   0  0  0  0  0  0  0  0  0  0  0  0
   -8.0232   -3.3012   -0.0619 H   0  0  0  0  0  0  0  0  0  0  0  0
   -9.0678   -0.8297   -2.8218 H   0  0  0  0  0  0  0  0  0  0  0  0
  -10.0705   -1.9415   -1.9159 H   0  0  0  0  0  0  0  0  0  0  0  0
   -8.3449   -3.4736   -5.0116 H   0  0  0  0  0  0  0  0  0  0  0  0
   -8.6686   -1.8173   -4.8100 H   0  0  0  0  0  0  0  0  0  0  0  0
   -7.7283   -3.4581   -2.3708 H   0  0  0  0  0  0  0  0  0  0  0  0
   -9.2918   -3.6085   -3.0560 H   0  0  0  0  0  0  0  0  0  0  0  0
   -3.9265   -2.0010    0.4392 H   0  0  0  0  0  0  0  0  0  0  0  0
    0.6629   -0.9647   -1.2594 H   0  0  0  0  0  0  0  0  0  0  0  0
    1.0573    0.0519    5.6241 H   0  0  0  0  0  0  0  0  0  0  0  0
    5.0704   -0.6403    2.1353 H   0  0  0  0  0  0  0  0  0  0  0  0
    3.4053    5.4804    1.6770 H   0  0  0  0  0  0  0  0  0  0  0  0
    4.5246    5.0107    0.4197 H   0  0  0  0  0  0  0  0  0  0  0  0
   -0.9783    5.2830    5.8792 H   0  0  0  0  0  0  0  0  0  0  0  0
   -0.2352    1.6748    8.1133 H   0  0  0  0  0  0  0  0  0  0  0  0
   -2.8170    4.1626    4.6894 H   0  0  0  0  0  0  0  0  0  0  0  0
   -2.0864    0.5630    6.9290 H   0  0  0  0  0  0  0  0  0  0  0  0
    0.6402    3.8083    8.8971 H   0  0  0  0  0  0  0  0  0  0  0  0
    0.2464    5.3079    8.1150 H   0  0  0  0  0  0  0  0  0  0  0  0
    1.7362    4.7860    5.3098 H   0  0  0  0  0  0  0  0  0  0  0  0
    1.5836    6.1395    6.3691 H   0  0  0  0  0  0  0  0  0  0  0  0
    2.6699    4.7688    8.2061 H   0  0  0  0  0  0  0  0  0  0  0  0
    2.4224    3.3539    7.1868 H   0  0  0  0  0  0  0  0  0  0  0  0
    6.3145    9.1619    5.2200 H   0  0  0  0  0  0  0  0  0  0  0  0
    6.8204    7.1369    8.3725 H   0  0  0  0  0  0  0  0  0  0  0  0
    7.1352    8.6580   10.6548 H   0  0  0  0  0  0  0  0  0  0  0  0
   -5.5984   -0.4935   -5.7177 H   0  0  0  0  0  0  0  0  0  0  0  0
   -6.8435   -0.2063   -4.4349 H   0  0  0  0  0  0  0  0  0  0  0  0
   -7.3478   -0.7542   -6.0787 H   0  0  0  0  0  0  0  0  0  0  0  0
    3.3784    7.3404    5.5642 C   0  0  0  0  0  0  0  0  0  0  0  0
    4.2162    7.8751    5.0736 H   0  0  0  0  0  0  0  0  0  0  0  0
    3.2031    7.7870    6.5640 H   0  0  0  0  0  0  0  0  0  0  0  0
    2.4664    7.4797    4.9466 H   0  0  0  0  0  0  0  0  0  0  0  0
  1  2  1  0  0  0  0
  1  6  1  0  0  0  0
  1  7  1  0  0  0  0
  1  8  1  0  0  0  0
  2  3  1  0  0  0  0
  2  5  1  0  0  0  0
  2  9  1  1  0  0  0
  3  4  2  0  0  0  0
  3 13  1  0  0  0  0
  5 10  1  0  0  0  0
  5 11  1  0  0  0  0
  5 12  1  0  0  0  0
 13 14  1  0  0  0  0
 13 18  1  0  0  0  0
 14 15  1  0  0  0  0
 14 17  1  0  0  0  0
 14 19  1  6  0  0  0
 15 16  2  0  0  0  0
 15 23  1  0  0  0  0
 17 20  1  0  0  0  0
 17 21  1  0  0  0  0
 17 22  1  0  0  0  0
 23 24  1  0  0  0  0
 23 28  1  0  0  0  0
 24 25  1  0  0  0  0
 24 27  1  0  0  0  0
 24 29  1  6  0  0  0
 25 26  2  0  0  0  0
 25 33  1  0  0  0  0
 27 30  1  0  0  0  0
 27 31  1  0  0  0  0
 27 32  1  0  0  0  0
 33 34  1  0  0  0  0
 33 38  1  0  0  0  0
 34 35  1  0  0  0  0
 34 37  1  0  0  0  0
 34 39  1  1  0  0  0
 35 36  2  0  0  0  0
 35 43  1  0  0  0  0
 37 40  1  0  0  0  0
 37 41  1  0  0  0  0
 37 42  1  0  0  0  0
 43 44  1  0  0  0  0
 43 48  1  0  0  0  0
 44 45  1  0  0  0  0
 44 47  1  0  0  0  0
 44 49  1  1  0  0  0
 45 46  2  0  0  0  0
 45 53  1  0  0  0  0
 47 50  1  0  0  0  0
 47 51  1  0  0  0  0
 47 52  1  0  0  0  0
 53 54  1  0  0  0  0
 53 58  1  0  0  0  0
 54 55  1  0  0  0  0
 54 57  1  0  0  0  0
 54 59  1  6  0  0  0
 55 56  2  0  0  0  0
 55 62  1  0  0  0  0
 57 60  1  0  0  0  0
 57 61  1  0  0  0  0
 57294  1  0  0  0  0
 62 63  1  0  0  0  0
 62295  1  0  0  0  0
 63 64  1  0  0  0  0
 63 66  1  0  0  0  0
 63 67  1  1  0  0  0
 64 65  2  0  0  0  0
 64 71  1  0  0  0  0
 66 68  1  0  0  0  0
 66 69  1  0  0  0  0
 66 70  1  0  0  0  0
 71 72  1  0  0  0  0
 71 76  1  0  0  0  0
 72 73  1  0  0  0  0
 72 75  1  0  0  0  0
 72 77  1  1  0  0  0
 73 74  2  0  0  0  0
 73 80  1  0  0  0  0
 75 78  1  0  0  0  0
 75 79  1  0  0  0  0
 75296  1  0  0  0  0
 80 81  1  0  0  0  0
 80 84  1  0  0  0  0
 81 82  1  0  0  0  0
 81 85  1  6  0  0  0
 81 88  1  0  0  0  0
 82 83  2  0  0  0  0
 82 89  1  0  0  0  0
 86 88  1  0  0  0  0
 87 88  1  0  0  0  0
 88297  1  0  0  0  0
 89 93  1  0  0  0  0
 90 89  1  6  0  0  0
 90 91  1  0  0  0  0
 90103  1  0  0  0  0
 90293  1  0  0  0  0
 91 92  2  0  0  0  0
 91105  1  0  0  0  0
 94 95  2  0  0  0  0
 94 96  1  0  0  0  0
 94100  1  0  0  0  0
 95 97  1  0  0  0  0
 95298  1  0  0  0  0
 96 98  2  0  0  0  0
 96299  1  0  0  0  0
 97 99  2  0  0  0  0
 97300  1  0  0  0  0
 98 99  1  0  0  0  0
 98301  1  0  0  0  0
 99102  1  0  0  0  0
100101  3  0  0  0  0
101211  1  0  0  0  0
102104  1  0  0  0  0
102302  1  0  0  0  0
102303  1  0  0  0  0
103104  1  0  0  0  0
103304  1  0  0  0  0
103305  1  0  0  0  0
104306  1  0  0  0  0
104307  1  0  0  0  0
105106  1  0  0  0  0
105110  1  0  0  0  0
106107  1  0  0  0  0
106109  1  0  0  0  0
106111  1  1  0  0  0
107108  2  0  0  0  0
107115  1  0  0  0  0
109112  1  0  0  0  0
109113  1  0  0  0  0
109114  1  0  0  0  0
115116  1  0  0  0  0
115120  1  0  0  0  0
116117  1  0  0  0  0
116119  1  0  0  0  0
116121  1  1  0  0  0
117118  2  0  0  0  0
117125  1  0  0  0  0
119122  1  0  0  0  0
119123  1  0  0  0  0
119124  1  0  0  0  0
125126  1  0  0  0  0
125130  1  0  0  0  0
126127  1  0  0  0  0
126129  1  0  0  0  0
126131  1  6  0  0  0
127128  2  0  0  0  0
127135  1  0  0  0  0
129132  1  0  0  0  0
129133  1  0  0  0  0
129134  1  0  0  0  0
135136  1  0  0  0  0
135140  1  0  0  0  0
136137  1  0  0  0  0
136139  1  0  0  0  0
136141  1  1  0  0  0
137138  2  0  0  0  0
137144  1  0  0  0  0
139142  1  0  0  0  0
139143  1  0  0  0  0
139308  1  0  0  0  0
144145  1  0  0  0  0
144149  1  0  0  0  0
145146  1  0  0  0  0
145148  1  0  0  0  0
145150  1  1  0  0  0
146147  2  0  0  0  0
146154  1  0  0  0  0
148151  1  0  0  0  0
148152  1  0  0  0  0
148153  1  0  0  0  0
154155  1  0  0  0  0
154309  1  0  0  0  0
155156  1  0  0  0  0
155158  1  0  0  0  0
155159  1  1  0  0  0
156157  2  0  0  0  0
156163  1  0  0  0  0
158160  1  0  0  0  0
158161  1  0  0  0  0
158162  1  0  0  0  0
163164  1  0  0  0  0
163168  1  0  0  0  0
164165  1  0  0  0  0
164167  1  0  0  0  0
164169  1  6  0  0  0
165166  2  0  0  0  0
165173  1  0  0  0  0
167170  1  0  0  0  0
167171  1  0  0  0  0
167172  1  0  0  0  0
173174  1  0  0  0  0
173178  1  0  0  0  0
174175  1  0  0  0  0
174177  1  0  0  0  0
174179  1  1  0  0  0
175176  2  0  0  0  0
175182  1  0  0  0  0
177180  1  0  0  0  0
177181  1  0  0  0  0
177310  1  0  0  0  0
182183  1  0  0  0  0
182187  1  0  0  0  0
183184  1  0  0  0  0
183186  1  0  0  0  0
183188  1  1  0  0  0
184185  2  0  0  0  0
184191  1  0  0  0  0
186189  1  0  0  0  0
186190  1  0  0  0  0
186311  1  0  0  0  0
191192  1  0  0  0  0
191196  1  0  0  0  0
192193  1  0  0  0  0
192195  1  0  0  0  0
192197  1  6  0  0  0
193194  2  0  0  0  0
193199  1  0  0  0  0
195198  1  0  0  0  0
195312  1  0  0  0  0
195313  1  0  0  0  0
199200  1  0  0  0  0
199203  1  0  0  0  0
200201  1  1  0  0  0
200213  1  0  0  0  0
200330  1  0  0  0  0
201202  2  0  0  0  0
201215  1  0  0  0  0
204205  2  0  0  0  0
204206  1  0  0  0  0
204212  1  0  0  0  0
205207  1  0  0  0  0
205314  1  0  0  0  0
206208  2  0  0  0  0
206315  1  0  0  0  0
207209  2  0  0  0  0
207316  1  0  0  0  0
208209  1  0  0  0  0
208317  1  0  0  0  0
209210  1  0  0  0  0
210211  3  0  0  0  0
212214  1  0  0  0  0
212318  1  0  0  0  0
212319  1  0  0  0  0
213214  1  0  0  0  0
213320  1  0  0  0  0
213321  1  0  0  0  0
214322  1  0  0  0  0
214323  1  0  0  0  0
215216  1  0  0  0  0
215220  1  0  0  0  0
216217  1  0  0  0  0
216219  1  0  0  0  0
216221  1  1  0  0  0
217218  2  0  0  0  0
217225  1  0  0  0  0
219222  1  0  0  0  0
219223  1  0  0  0  0
219224  1  0  0  0  0
225226  1  0  0  0  0
225230  1  0  0  0  0
226227  1  0  0  0  0
226229  1  0  0  0  0
226231  1  1  0  0  0
227228  2  0  0  0  0
227235  1  0  0  0  0
229232  1  0  0  0  0
229233  1  0  0  0  0
229234  1  0  0  0  0
235236  1  0  0  0  0
235240  1  0  0  0  0
236237  1  0  0  0  0
236239  1  0  0  0  0
236241  1  6  0  0  0
237238  2  0  0  0  0
237244  1  0  0  0  0
239242  1  0  0  0  0
239243  1  0  0  0  0
239324  1  0  0  0  0
244245  1  0  0  0  0
244325  1  0  0  0  0
245246  1  0  0  0  0
245248  1  0  0  0  0
245326  1  1  0  0  0
246247  2  0  0  0  0
246252  1  0  0  0  0
248249  1  0  0  0  0
248250  1  0  0  0  0
248251  1  0  0  0  0
252253  1  0  0  0  0
252257  1  0  0  0  0
253254  1  0  0  0  0
253256  1  0  0  0  0
253258  1  1  0  0  0
254255  2  0  0  0  0
254262  1  0  0  0  0
256259  1  0  0  0  0
256260  1  0  0  0  0
256261  1  0  0  0  0
262263  1  0  0  0  0
262267  1  0  0  0  0
263264  1  0  0  0  0
263266  1  0  0  0  0
263268  1  6  0  0  0
264265  2  0  0  0  0
264272  1  0  0  0  0
266269  1  0  0  0  0
266270  1  0  0  0  0
266271  1  0  0  0  0
272273  1  0  0  0  0
272277  1  0  0  0  0
273274  1  0  0  0  0
273276  1  0  0  0  0
273278  1  6  0  0  0
274275  2  0  0  0  0
274282  1  0  0  0  0
276279  1  0  0  0  0
276280  1  0  0  0  0
276281  1  0  0  0  0
282283  1  0  0  0  0
282288  1  0  0  0  0
283284  1  0  0  0  0
283287  1  0  0  0  0
283289  1  1  0  0  0
284285  2  0  0  0  0
284286  2  0  0  0  0
287290  1  0  0  0  0
287291  1  0  0  0  0
287292  1  0  0  0  0
293327  1  0  0  0  0
293328  1  0  0  0  0
293329  1  0  0  0  0
330331  1  0  0  0  0
330332  1  0  0  0  0
330333  1  0  0  0  0
M  CHG  1   1   1
M  END
>  <MOL Chiral Flag>
0

>  <Index>
0

>  <NAME>
Idealised ?-helix

$$$$
